@<TRIPOS>MOLECULE
*****
 82 84 0 0 0
SMALL
GASTEIGER

@<TRIPOS>ATOM
      1 C          19.2728   -6.8392    4.0440 C.3     1  LIG1       -0.0306
      2 C          18.1039   -7.0723    4.9843 C.3     1  LIG1        0.0900
      3 O          16.8440   -7.1711    4.3038 O.3     1  LIG1       -0.4618
      4 C          16.3331   -5.9932    3.8639 C.2     1  LIG1        0.3317
      5 O          16.9237   -4.9308    3.7844 O.2     1  LIG1       -0.2456
      6 C          14.8975   -6.2038    3.5726 C.2     1  LIG1        0.0203
      7 C          14.1316   -5.1622    3.2070 C.2     1  LIG1       -0.0572
      8 C          12.6896   -5.2397    2.7904 C.3     1  LIG1        0.0425
      9 H          12.3440   -6.2771    2.9015 H       1  LIG1        0.0543
     10 C          12.4243   -4.8123    1.3327 C.3     1  LIG1       -0.0226
     11 C          13.1840   -5.5833    0.2510 C.3     1  LIG1        0.0257
     12 C          14.6815   -5.3877    0.3042 C.2     1  LIG1        0.2106
     13 N          15.4097   -6.4767   -0.0684 N.am    1  LIG1       -0.3293
     14 O          15.2342   -4.3463    0.6326 O.2     1  LIG1       -0.2760
     15 N          11.9782   -4.4876    3.8197 N.am    1  LIG1       -0.3073
     16 C          11.0678   -3.4686    3.6775 C.2     1  LIG1        0.2365
     17 O          10.7296   -3.0363    2.5760 O.2     1  LIG1       -0.2735
     18 C          10.3471   -2.9492    4.9768 C.3     1  LIG1        0.1134
     19 H           9.3801   -3.4791    4.9185 H       1  LIG1        0.0625
     20 C           9.9757   -1.4057    4.8366 C.3     1  LIG1       -0.0207
     21 C          11.1109   -0.3139    4.8925 C.3     1  LIG1       -0.0387
     22 C          12.1303   -0.3985    3.7594 C.3     1  LIG1       -0.0501
     23 C          11.5279    0.0188    2.4245 C.3     1  LIG1       -0.0528
     24 C          10.9998    1.4477    2.4791 C.3     1  LIG1       -0.0530
     25 C          10.0050    1.6393    3.6223 C.3     1  LIG1       -0.0528
     26 C          10.5614    1.1362    4.9529 C.3     1  LIG1       -0.0501
     27 N          10.8737   -3.3669    6.3202 N.ar    1  LIG1       -0.3018
     28 C          10.9537   -2.4316    7.3376 C.ar    1  LIG1        0.0089
     29 C          11.1929   -2.7539    8.6018 C.ar    1  LIG1       -0.0435
     30 C          11.4822   -4.0986    8.9564 C.ar    1  LIG1       -0.0337
     31 C          11.4742   -5.0840    8.0502 C.ar    1  LIG1        0.1013
     32 N          11.8781   -6.3812    8.2827 N.am    1  LIG1       -0.2463
     33 C          12.4368   -6.9444    9.4000 C.2     1  LIG1        0.4050
     34 O          12.6631   -8.1465    9.4525 O.2     1  LIG1       -0.2261
     35 O          12.7315   -6.0545   10.3752 O.3     1  LIG1       -0.4454
     36 C          13.3609   -6.4953   11.5822 C.3     1  LIG1        0.1191
     37 C          14.8591   -6.4323   11.4383 C.ar    1  LIG1       -0.0103
     38 C          15.6488   -5.5922   12.2345 C.ar    1  LIG1       -0.0554
     39 C          17.0413   -5.6119   12.1053 C.ar    1  LIG1       -0.0614
     40 C          17.6522   -6.4520   11.1732 C.ar    1  LIG1       -0.0617
     41 C          16.8762   -7.2685   10.3625 C.ar    1  LIG1       -0.0614
     42 C          15.4949   -7.2601   10.5021 C.ar    1  LIG1       -0.0554
     43 C          10.9682   -4.7399    6.6583 C.ar    1  LIG1        0.2734
     44 O          10.7483   -5.6698    5.8645 O.2     1  LIG1       -0.2656
     45 H          20.2150   -6.8432    4.6008 H       1  LIG1        0.0262
     46 H          19.1932   -5.8775    3.5296 H       1  LIG1        0.0262
     47 H          19.3114   -7.6131    3.2721 H       1  LIG1        0.0262
     48 H          18.0467   -6.2931    5.7535 H       1  LIG1        0.0695
     49 H          18.2487   -8.0242    5.5065 H       1  LIG1        0.0695
     50 H          14.5156   -7.2129    3.6560 H       1  LIG1        0.0686
     51 H          14.5837   -4.1705    3.1376 H       1  LIG1        0.0593
     52 H          12.6270   -3.7426    1.2097 H       1  LIG1        0.0291
     53 H          11.3547   -4.9640    1.1301 H       1  LIG1        0.0291
     54 H          12.8638   -5.2149   -0.7322 H       1  LIG1        0.0359
     55 H          12.9326   -6.6484    0.2961 H       1  LIG1        0.0359
     56 H          14.9959   -7.3578   -0.3341 H       1  LIG1        0.1449
     57 H          16.4148   -6.4116    0.0302 H       1  LIG1        0.1449
     58 H          11.9906   -4.9444    4.7192 H       1  LIG1        0.1493
     59 H           9.2506   -1.1757    5.6327 H       1  LIG1        0.0293
     60 H           9.4036   -1.2731    3.9121 H       1  LIG1        0.0293
     61 H          11.6959   -0.4273    5.8072 H       1  LIG1        0.0302
     62 H          12.5701   -1.3963    3.7102 H       1  LIG1        0.0268
     63 H          12.9660    0.2756    3.9950 H       1  LIG1        0.0268
     64 H          10.7009   -0.6420    2.1516 H       1  LIG1        0.0265
     65 H          12.2843   -0.0751    1.6398 H       1  LIG1        0.0265
     66 H          10.5178    1.6965    1.5273 H       1  LIG1        0.0265
     67 H          11.8409    2.1413    2.6020 H       1  LIG1        0.0265
     68 H           9.0716    1.1136    3.3939 H       1  LIG1        0.0265
     69 H           9.7547    2.7045    3.7059 H       1  LIG1        0.0265
     70 H           9.8084    1.2427    5.7426 H       1  LIG1        0.0268
     71 H          11.3888    1.8034    5.2387 H       1  LIG1        0.0268
     72 H          10.7711   -1.4040    7.1313 H       1  LIG1        0.0810
     73 H          11.2231   -1.9881    9.3684 H       1  LIG1        0.0633
     74 H          11.7644   -4.2177    9.9905 H       1  LIG1        0.0638
     75 H          11.8063   -7.0220    7.4974 H       1  LIG1        0.1583
     76 H          13.0254   -7.4960   11.8711 H       1  LIG1        0.0749
     77 H          13.0284   -5.8083   12.3720 H       1  LIG1        0.0749
     78 H          15.1965   -4.9277   12.9681 H       1  LIG1        0.0621
     79 H          17.6563   -4.9790   12.7396 H       1  LIG1        0.0618
     80 H          18.7335   -6.4794   11.0810 H       1  LIG1        0.0618
     81 H          17.3304   -7.9294    9.6305 H       1  LIG1        0.0618
     82 H          14.9210   -7.9304    9.8714 H       1  LIG1        0.0621
@<TRIPOS>BOND
     1     1     2    1
     2     2     3    1
     3     3     4    1
     4     4     5    2
     5     4     6    1
     6     6     7    2
     7     8    10    1
     8    10    11    1
     9    11    12    1
    10    12    13   am
    11    12    14    2
    12     8    15    1
    13    15    16   am
    14    16    17    2
    15    18    20    1
    16    20    21    1
    17    21    22    1
    18    22    23    1
    19    23    24    1
    20    24    25    1
    21    25    26    1
    22    21    26    1
    23    18    27    1
    24    27    28   ar
    25    28    29   ar
    26    29    30   ar
    27    30    31   ar
    28    31    32    1
    29    32    33   am
    30    33    34    2
    31    33    35    1
    32    35    36    1
    33    36    37    1
    34    37    38   ar
    35    38    39   ar
    36    39    40   ar
    37    40    41   ar
    38    41    42   ar
    39    37    42   ar
    40    31    43   ar
    41    27    43   ar
    42    43    44    2
    43     8     9    1
    44     8     7    1
    45    18    19    1
    46    18    16    1
    47     1    45    1
    48     1    46    1
    49     1    47    1
    50     2    48    1
    51     2    49    1
    52     6    50    1
    53     7    51    1
    54    10    52    1
    55    10    53    1
    56    11    54    1
    57    11    55    1
    58    13    56    1
    59    13    57    1
    60    15    58    1
    61    20    59    1
    62    20    60    1
    63    21    61    1
    64    22    62    1
    65    22    63    1
    66    23    64    1
    67    23    65    1
    68    24    66    1
    69    24    67    1
    70    25    68    1
    71    25    69    1
    72    26    70    1
    73    26    71    1
    74    28    72    1
    75    29    73    1
    76    30    74    1
    77    32    75    1
    78    36    76    1
    79    36    77    1
    80    38    78    1
    81    39    79    1
    82    40    80    1
    83    41    81    1
    84    42    82    1
@<TRIPOS>MOLECULE
*****
 80 83 0 0 0
SMALL
GASTEIGER

@<TRIPOS>ATOM
      1 C          -1.8346    5.5545    2.7118 C.3     1  LIG1       -0.0306
      2 C          -0.5236    4.8635    3.0420 C.3     1  LIG1        0.0900
      3 O           0.1788    4.3705    1.8937 O.3     1  LIG1       -0.4618
      4 C          -0.3270    3.2387    1.3507 C.2     1  LIG1        0.3317
      5 O          -1.4354    2.7635    1.5381 O.2     1  LIG1       -0.2456
      6 C           0.7299    2.5850    0.5565 C.2     1  LIG1        0.0203
      7 C           0.3771    1.6962   -0.3854 C.2     1  LIG1       -0.0572
      8 C           1.3442    0.8150   -1.1126 C.3     1  LIG1        0.0427
      9 H           2.3662    1.2086   -1.0333 H       1  LIG1        0.0543
     10 C           0.9822    0.5963   -2.5888 C.3     1  LIG1       -0.0197
     11 C           0.9618    1.8546   -3.4594 C.3     1  LIG1        0.0389
     12 H           0.3179    2.6370   -3.0477 H       1  LIG1        0.0395
     13 C           0.5224    1.5076   -4.8932 C.3     1  LIG1       -0.0262
     14 C           1.8106    1.0984   -5.5863 C.3     1  LIG1        0.0123
     15 N           2.8049    1.8715   -4.9080 N.am    1  LIG1       -0.3151
     16 C           2.3554    2.3901   -3.7113 C.2     1  LIG1        0.2162
     17 O           2.9884    3.1282   -2.9785 O.2     1  LIG1       -0.2755
     18 N           1.2623   -0.4747   -0.4300 N.am    1  LIG1       -0.3073
     19 C           2.3484   -1.3215   -0.3885 C.2     1  LIG1        0.2368
     20 O           3.4421   -0.9088   -0.7708 O.2     1  LIG1       -0.2735
     21 C           2.1234   -2.7078    0.3043 C.3     1  LIG1        0.1171
     22 H           2.4068   -2.5288    1.3508 H       1  LIG1        0.0628
     23 C           3.0515   -3.8421   -0.2289 C.3     1  LIG1        0.0018
     24 C           4.5416   -3.5665   -0.2747 C.ar    1  LIG1       -0.0449
     25 C           5.3721   -3.8218    0.8222 C.ar    1  LIG1       -0.0585
     26 C           6.7275   -3.4722    0.7798 C.ar    1  LIG1       -0.0615
     27 C           7.2624   -2.8498   -0.3478 C.ar    1  LIG1       -0.0617
     28 C           6.4540   -2.6145   -1.4537 C.ar    1  LIG1       -0.0615
     29 C           5.1130   -2.9990   -1.4271 C.ar    1  LIG1       -0.0585
     30 N           0.6736   -3.1236    0.2938 N.ar    1  LIG1       -0.3015
     31 C           0.0688   -3.4596   -0.9127 C.ar    1  LIG1        0.0089
     32 C          -1.2292   -3.7769   -0.9854 C.ar    1  LIG1       -0.0435
     33 C          -2.0425   -3.8060    0.1950 C.ar    1  LIG1       -0.0337
     34 C          -1.5269   -3.5573    1.4073 C.ar    1  LIG1        0.1013
     35 N          -2.2276   -3.6480    2.5904 N.am    1  LIG1       -0.2463
     36 C          -3.5589   -3.9329    2.7888 C.2     1  LIG1        0.4050
     37 O          -4.4171   -4.0711    1.9346 O.2     1  LIG1       -0.2261
     38 O          -3.7856   -3.9891    4.1211 O.3     1  LIG1       -0.4454
     39 C          -5.1477   -3.7826    4.5211 C.3     1  LIG1        0.1191
     40 C          -5.2964   -2.3012    4.7415 C.ar    1  LIG1       -0.0103
     41 C          -5.6767   -1.4653    3.6822 C.ar    1  LIG1       -0.0554
     42 C          -5.6964   -0.0816    3.8481 C.ar    1  LIG1       -0.0614
     43 C          -5.3358    0.4779    5.0723 C.ar    1  LIG1       -0.0617
     44 C          -4.9503   -0.3440    6.1301 C.ar    1  LIG1       -0.0614
     45 C          -4.9242   -1.7283    5.9649 C.ar    1  LIG1       -0.0554
     46 C          -0.0530   -3.1696    1.5015 C.ar    1  LIG1        0.2734
     47 O           0.4263   -2.9175    2.6054 O.2     1  LIG1       -0.2656
     48 H          -2.3055    5.9198    3.6301 H       1  LIG1        0.0262
     49 H          -2.5391    4.8787    2.2194 H       1  LIG1        0.0262
     50 H          -1.6751    6.4003    2.0369 H       1  LIG1        0.0262
     51 H          -0.6798    4.0419    3.7501 H       1  LIG1        0.0695
     52 H           0.1468    5.5798    3.5286 H       1  LIG1        0.0695
     53 H           1.7581    2.7660    0.8492 H       1  LIG1        0.0686
     54 H          -0.6775    1.5583   -0.6133 H       1  LIG1        0.0593
     55 H          -0.0102    0.1263   -2.6357 H       1  LIG1        0.0293
     56 H           1.6788   -0.1420   -3.0096 H       1  LIG1        0.0293
     57 H           0.1200    2.4088   -5.3727 H       1  LIG1        0.0288
     58 H          -0.2482    0.7322   -4.9437 H       1  LIG1        0.0288
     59 H           1.8106    1.3417   -6.6514 H       1  LIG1        0.0462
     60 H           2.0383    0.0362   -5.4517 H       1  LIG1        0.0462
     61 H           3.7365    2.0766   -5.2491 H       1  LIG1        0.1487
     62 H           0.3542   -0.8790   -0.2681 H       1  LIG1        0.1493
     63 H           2.7438   -4.1391   -1.2399 H       1  LIG1        0.0338
     64 H           2.8896   -4.7403    0.3846 H       1  LIG1        0.0338
     65 H           4.9757   -4.2830    1.7232 H       1  LIG1        0.0620
     66 H           7.3664   -3.6650    1.6377 H       1  LIG1        0.0618
     67 H           8.3030   -2.5370   -0.3616 H       1  LIG1        0.0618
     68 H           6.8521   -2.1019   -2.3254 H       1  LIG1        0.0618
     69 H           4.4927   -2.7709   -2.2915 H       1  LIG1        0.0620
     70 H           0.6799   -3.4530   -1.8095 H       1  LIG1        0.0810
     71 H          -1.7000   -4.0386   -1.9264 H       1  LIG1        0.0633
     72 H          -3.0836   -4.0770    0.0535 H       1  LIG1        0.0638
     73 H          -1.7104   -3.4397    3.4374 H       1  LIG1        0.1583
     74 H          -5.3165   -4.3257    5.4591 H       1  LIG1        0.0749
     75 H          -5.8829   -4.1703    3.8033 H       1  LIG1        0.0749
     76 H          -5.9297   -1.8889    2.7114 H       1  LIG1        0.0621
     77 H          -5.9779    0.5597    3.0171 H       1  LIG1        0.0618
     78 H          -5.3445    1.5570    5.1976 H       1  LIG1        0.0618
     79 H          -4.6552    0.0942    7.0796 H       1  LIG1        0.0618
     80 H          -4.5885   -2.3575    6.7864 H       1  LIG1        0.0621
@<TRIPOS>BOND
     1     1     2    1
     2     2     3    1
     3     3     4    1
     4     4     5    2
     5     4     6    1
     6     6     7    2
     7     8    10    1
     8    11    13    1
     9    13    14    1
    10    14    15    1
    11    15    16   am
    12    11    16    1
    13    16    17    2
    14     8    18    1
    15    18    19   am
    16    19    20    2
    17    21    23    1
    18    23    24    1
    19    24    25   ar
    20    25    26   ar
    21    26    27   ar
    22    27    28   ar
    23    28    29   ar
    24    24    29   ar
    25    21    30    1
    26    30    31   ar
    27    31    32   ar
    28    32    33   ar
    29    33    34   ar
    30    34    35    1
    31    35    36   am
    32    36    37    2
    33    36    38    1
    34    38    39    1
    35    39    40    1
    36    40    41   ar
    37    41    42   ar
    38    42    43   ar
    39    43    44   ar
    40    44    45   ar
    41    40    45   ar
    42    34    46   ar
    43    30    46   ar
    44    46    47    2
    45    11    12    1
    46    11    10    1
    47     8     9    1
    48     8     7    1
    49    21    22    1
    50    21    19    1
    51     1    48    1
    52     1    49    1
    53     1    50    1
    54     2    51    1
    55     2    52    1
    56     6    53    1
    57     7    54    1
    58    10    55    1
    59    10    56    1
    60    13    57    1
    61    13    58    1
    62    14    59    1
    63    14    60    1
    64    15    61    1
    65    18    62    1
    66    23    63    1
    67    23    64    1
    68    25    65    1
    69    26    66    1
    70    27    67    1
    71    28    68    1
    72    29    69    1
    73    31    70    1
    74    32    71    1
    75    33    72    1
    76    35    73    1
    77    39    74    1
    78    39    75    1
    79    41    76    1
    80    42    77    1
    81    43    78    1
    82    44    79    1
    83    45    80    1
@<TRIPOS>MOLECULE
*****
 75 78 0 0 0
SMALL
GASTEIGER

@<TRIPOS>ATOM
      1 C          12.9218   -6.4454  -12.3908 C.3     1  LIG1       -0.0306
      2 C          12.9995   -5.6718  -11.0910 C.3     1  LIG1        0.0900
      3 O          11.7492   -5.0848  -10.7143 O.3     1  LIG1       -0.4618
      4 C          11.4194   -3.9444  -11.3679 C.2     1  LIG1        0.3317
      5 O          11.8440   -3.5781  -12.4583 O.2     1  LIG1       -0.2456
      6 C          10.5928   -3.0836  -10.5011 C.2     1  LIG1        0.0203
      7 C           9.8788   -3.5509   -9.4595 C.2     1  LIG1       -0.0572
      8 C           9.1058   -2.6798   -8.5111 C.3     1  LIG1        0.0427
      9 H           9.2050   -1.6255   -8.7986 H       1  LIG1        0.0543
     10 C           9.5652   -2.8473   -7.0376 C.3     1  LIG1       -0.0197
     11 C          11.0350   -2.4578   -6.7536 C.3     1  LIG1        0.0389
     12 H          11.7441   -2.9708   -7.4108 H       1  LIG1        0.0395
     13 C          11.4558   -2.6682   -5.2814 C.3     1  LIG1       -0.0262
     14 C          10.9111   -1.4395   -4.5761 C.3     1  LIG1        0.0123
     15 N          11.0567   -0.4268   -5.5792 N.am    1  LIG1       -0.3151
     16 C          11.1905   -0.9558   -6.8470 C.2     1  LIG1        0.2162
     17 O          11.3483   -0.3099   -7.8731 O.2     1  LIG1       -0.2755
     18 N           7.7030   -3.0657   -8.6793 N.am    1  LIG1       -0.3073
     19 C           6.6734   -2.1634   -8.5245 C.2     1  LIG1        0.2368
     20 O           6.8657   -1.0424   -8.0491 O.2     1  LIG1       -0.2735
     21 C           5.2306   -2.6638   -8.8381 C.3     1  LIG1        0.1171
     22 H           4.6781   -1.7315   -9.0351 H       1  LIG1        0.0628
     23 C           4.5364   -3.2790   -7.5387 C.3     1  LIG1        0.0018
     24 C           5.0111   -4.6258   -6.9820 C.ar    1  LIG1       -0.0448
     25 C           5.9975   -4.6745   -5.9944 C.ar    1  LIG1       -0.0558
     26 C           6.6603   -5.8771   -5.7229 C.ar    1  LIG1       -0.0262
     27 C           6.3818   -7.0075   -6.4812 C.ar    1  LIG1        0.1234
     28 F           7.1367   -8.1051   -6.3591 F       1  LIG1       -0.2055
     29 C           5.3192   -7.0124   -7.3567 C.ar    1  LIG1       -0.0262
     30 C           4.5472   -5.8629   -7.4670 C.ar    1  LIG1       -0.0558
     31 N           5.1277   -3.3979  -10.1461 N.ar    1  LIG1       -0.3015
     32 C           4.3534   -4.5239  -10.2588 C.ar    1  LIG1        0.0089
     33 C           3.9916   -5.1028  -11.3955 C.ar    1  LIG1       -0.0435
     34 C           4.3452   -4.4854  -12.6340 C.ar    1  LIG1       -0.0338
     35 C           5.1838   -3.4393  -12.6465 C.ar    1  LIG1        0.0991
     36 N           5.7268   -2.8752  -13.7835 N.am    1  LIG1       -0.2758
     37 C           5.6052   -3.2427  -15.0896 C.2     1  LIG1        0.2700
     38 O           4.9059   -4.2071  -15.5071 O.2     1  LIG1       -0.2681
     39 C           6.4027   -2.4558  -16.0144 C.ar    1  LIG1        0.1681
     40 C           6.8381   -2.7851  -17.3200 C.ar    1  LIG1        0.0125
     41 C           7.6550   -1.7434  -17.6920 C.ar    1  LIG1        0.1350
     42 C           8.4772   -1.4287  -18.8744 C.3     1  LIG1       -0.0037
     43 O           7.6614   -0.8109  -16.7021 O.2     1  LIG1       -0.3592
     44 N           6.8788   -1.2413  -15.6493 N.ar    1  LIG1       -0.0734
     45 C           5.4824   -2.7283  -11.3277 C.ar    1  LIG1        0.2733
     46 O           5.9496   -1.5915  -11.3605 O.2     1  LIG1       -0.2656
     47 H          13.8856   -6.9152  -12.6080 H       1  LIG1        0.0262
     48 H          12.6647   -5.7953  -13.2312 H       1  LIG1        0.0262
     49 H          12.1512   -7.2194  -12.3349 H       1  LIG1        0.0262
     50 H          13.7729   -4.8957  -11.1292 H       1  LIG1        0.0695
     51 H          13.2755   -6.3539  -10.2796 H       1  LIG1        0.0695
     52 H          10.6461   -2.0256  -10.7411 H       1  LIG1        0.0686
     53 H           9.8486   -4.6205   -9.2712 H       1  LIG1        0.0593
     54 H           9.4028   -3.8845   -6.7185 H       1  LIG1        0.0293
     55 H           8.9007   -2.2320   -6.4172 H       1  LIG1        0.0293
     56 H          12.5547   -2.6450   -5.2172 H       1  LIG1        0.0288
     57 H          11.1215   -3.6101   -4.8391 H       1  LIG1        0.0288
     58 H          11.4740   -1.1677   -3.6792 H       1  LIG1        0.0462
     59 H           9.8507   -1.5439   -4.3267 H       1  LIG1        0.0462
     60 H          11.0405    0.5739   -5.4254 H       1  LIG1        0.1487
     61 H           7.4723   -4.0152   -8.9408 H       1  LIG1        0.1493
     62 H           3.4543   -3.3346   -7.7195 H       1  LIG1        0.0338
     63 H           4.6435   -2.5370   -6.7324 H       1  LIG1        0.0338
     64 H           6.2730   -3.7782   -5.4433 H       1  LIG1        0.0621
     65 H           7.4361   -5.9249   -4.9680 H       1  LIG1        0.0646
     66 H           5.0963   -7.8875   -7.9610 H       1  LIG1        0.0646
     67 H           3.6120   -5.9756   -8.0101 H       1  LIG1        0.0621
     68 H           3.9549   -4.9238   -9.3739 H       1  LIG1        0.0810
     69 H           3.4094   -6.0198  -11.3915 H       1  LIG1        0.0633
     70 H           3.8875   -4.9050  -13.5221 H       1  LIG1        0.0638
     71 H           6.3664   -2.0898  -13.5963 H       1  LIG1        0.1553
     72 H           6.6204   -3.6829  -17.8824 H       1  LIG1        0.0676
     73 H           8.3999   -2.2098  -19.6367 H       1  LIG1        0.0309
     74 H           9.5334   -1.3228  -18.6032 H       1  LIG1        0.0309
     75 H           8.1433   -0.4851  -19.3156 H       1  LIG1        0.0309
@<TRIPOS>BOND
     1     1     2    1
     2     2     3    1
     3     3     4    1
     4     4     5    2
     5     4     6    1
     6     6     7    2
     7     8    10    1
     8    11    13    1
     9    13    14    1
    10    14    15    1
    11    15    16   am
    12    11    16    1
    13    16    17    2
    14     8    18    1
    15    18    19   am
    16    19    20    2
    17    21    23    1
    18    23    24    1
    19    24    25   ar
    20    25    26   ar
    21    26    27   ar
    22    27    28    1
    23    27    29   ar
    24    29    30   ar
    25    24    30   ar
    26    21    31    1
    27    31    32   ar
    28    32    33   ar
    29    33    34   ar
    30    34    35   ar
    31    35    36    1
    32    36    37   am
    33    37    38    2
    34    37    39    1
    35    39    40   ar
    36    40    41   ar
    37    41    42    1
    38    41    43   ar
    39    43    44   ar
    40    39    44   ar
    41    35    45   ar
    42    31    45   ar
    43    45    46    2
    44    21    22    1
    45    21    19    1
    46    11    12    1
    47    11    10    1
    48     8     9    1
    49     8     7    1
    50     1    47    1
    51     1    48    1
    52     1    49    1
    53     2    50    1
    54     2    51    1
    55     6    52    1
    56     7    53    1
    57    10    54    1
    58    10    55    1
    59    13    56    1
    60    13    57    1
    61    14    58    1
    62    14    59    1
    63    15    60    1
    64    18    61    1
    65    23    62    1
    66    23    63    1
    67    25    64    1
    68    26    65    1
    69    29    66    1
    70    30    67    1
    71    32    68    1
    72    33    69    1
    73    34    70    1
    74    36    71    1
    75    40    72    1
    76    42    73    1
    77    42    74    1
    78    42    75    1
@<TRIPOS>MOLECULE
*****
 78 81 0 0 0
SMALL
GASTEIGER

@<TRIPOS>ATOM
      1 C           3.8993    2.1204    6.1297 C.3     1  LIG1       -0.0037
      2 C           3.6855    2.5646    4.7439 C.ar    1  LIG1        0.1350
      3 C           4.5382    2.8848    3.7248 C.ar    1  LIG1        0.0125
      4 C           3.7061    3.0840    2.5897 C.ar    1  LIG1        0.1681
      5 C           4.1030    3.3235    1.2242 C.2     1  LIG1        0.2700
      6 O           3.3809    3.9679    0.4561 O.2     1  LIG1       -0.2681
      7 N           5.3224    2.7651    0.8514 N.am    1  LIG1       -0.2758
      8 C           5.9054    2.8097   -0.4010 C.ar    1  LIG1        0.0991
      9 C           5.4194    3.3900   -1.4951 C.ar    1  LIG1       -0.0338
     10 C           6.0692    3.2634   -2.7714 C.ar    1  LIG1       -0.0435
     11 C           7.3205    2.8025   -2.8390 C.ar    1  LIG1        0.0089
     12 N           7.9664    2.3297   -1.7020 N.ar    1  LIG1       -0.3015
     13 C           9.3628    1.8404   -1.8386 C.3     1  LIG1        0.1171
     14 H           9.8078    2.3809   -2.6888 H       1  LIG1        0.0628
     15 C          10.2882    2.0937   -0.6145 C.3     1  LIG1        0.0019
     16 C          10.4382    3.5447   -0.1824 C.ar    1  LIG1       -0.0420
     17 C           9.5622    4.1207    0.7570 C.ar    1  LIG1       -0.0556
     18 C           9.7003    5.4533    1.1581 C.ar    1  LIG1       -0.0233
     19 C          10.7450    6.2127    0.6525 C.ar    1  LIG1        0.1584
     20 F          10.8876    7.4838    1.0526 F       1  LIG1       -0.2025
     21 C          11.6380    5.6535   -0.2519 C.ar    1  LIG1        0.1587
     22 F          12.6658    6.3788   -0.7141 F       1  LIG1       -0.2025
     23 C          11.4845    4.3340   -0.6829 C.ar    1  LIG1       -0.0203
     24 C           9.3937    0.3395   -2.2393 C.2     1  LIG1        0.2368
     25 O          10.4523   -0.2601   -2.4093 O.2     1  LIG1       -0.2735
     26 N           8.1589   -0.2491   -2.4210 N.am    1  LIG1       -0.3073
     27 C           7.9280   -1.6414   -2.7932 C.3     1  LIG1        0.0427
     28 H           8.3569   -1.7631   -3.7935 H       1  LIG1        0.0543
     29 C           6.4243   -1.7824   -2.8357 C.2     1  LIG1       -0.0572
     30 C           5.7303   -2.5649   -3.6882 C.2     1  LIG1        0.0203
     31 C           4.2451   -2.5395   -3.7903 C.2     1  LIG1        0.3319
     32 O           3.5844   -3.4106   -4.3362 O.2     1  LIG1       -0.2456
     33 O           3.7991   -1.3564   -3.3077 O.3     1  LIG1       -0.4588
     34 C           2.9199   -0.6047   -4.1652 C.3     1  LIG1        0.0978
     35 C           1.4794   -1.0864   -4.0981 C.3     1  LIG1       -0.0280
     36 C           3.0461    0.8403   -3.6908 C.3     1  LIG1       -0.0280
     37 C           8.5829   -2.6113   -1.7848 C.3     1  LIG1       -0.0197
     38 C           8.3657   -4.0956   -2.1056 C.3     1  LIG1        0.0389
     39 H           7.3048   -4.3455   -2.1770 H       1  LIG1        0.0395
     40 C           9.0326   -5.0429   -1.0939 C.3     1  LIG1       -0.0262
     41 C          10.4415   -5.2240   -1.6271 C.3     1  LIG1        0.0123
     42 N          10.2539   -5.1426   -3.0412 N.am    1  LIG1       -0.3151
     43 C           9.0867   -4.4922   -3.3759 C.2     1  LIG1        0.2162
     44 O           8.7274   -4.2337   -4.5138 O.2     1  LIG1       -0.2755
     45 C           7.2575    2.1218   -0.5099 C.ar    1  LIG1        0.2733
     46 O           7.6534    1.4580    0.4424 O.2     1  LIG1       -0.2656
     47 N           2.4088    3.0032    2.9597 N.ar    1  LIG1       -0.0734
     48 O           2.4057    2.6592    4.3024 O.2     1  LIG1       -0.3592
     49 H           4.9658    2.1755    6.3719 H       1  LIG1        0.0309
     50 H           3.5857    1.0782    6.2435 H       1  LIG1        0.0309
     51 H           3.3519    2.7382    6.8456 H       1  LIG1        0.0309
     52 H           5.6190    2.9206    3.7827 H       1  LIG1        0.0676
     53 H           5.7976    2.1894    1.5211 H       1  LIG1        0.1553
     54 H           4.4901    3.9496   -1.4961 H       1  LIG1        0.0638
     55 H           5.5076    3.5356   -3.6587 H       1  LIG1        0.0633
     56 H           7.8326    2.7097   -3.7947 H       1  LIG1        0.0810
     57 H          11.2920    1.7043   -0.8374 H       1  LIG1        0.0338
     58 H           9.9743    1.4966    0.2489 H       1  LIG1        0.0338
     59 H           8.7668    3.5346    1.2079 H       1  LIG1        0.0621
     60 H           9.0090    5.8952    1.8694 H       1  LIG1        0.0647
     61 H          12.2046    3.9325   -1.3902 H       1  LIG1        0.0650
     62 H           7.3771    0.3871   -2.5033 H       1  LIG1        0.1493
     63 H           5.8600   -1.1645   -2.1387 H       1  LIG1        0.0593
     64 H           6.2180   -3.2370   -4.3874 H       1  LIG1        0.0686
     65 H           3.2833   -0.6646   -5.1995 H       1  LIG1        0.0728
     66 H           1.1238   -1.1464   -3.0655 H       1  LIG1        0.0265
     67 H           1.3837   -2.0866   -4.5315 H       1  LIG1        0.0265
     68 H           0.8201   -0.4184   -4.6632 H       1  LIG1        0.0265
     69 H           2.8763    0.9162   -2.6100 H       1  LIG1        0.0265
     70 H           2.3551    1.5100   -4.2087 H       1  LIG1        0.0265
     71 H           4.0680    1.1964   -3.8651 H       1  LIG1        0.0265
     72 H           8.2078   -2.3932   -0.7757 H       1  LIG1        0.0293
     73 H           9.6599   -2.4134   -1.7505 H       1  LIG1        0.0293
     74 H           8.5146   -6.0115   -1.1363 H       1  LIG1        0.0288
     75 H           9.0017   -4.6961   -0.0581 H       1  LIG1        0.0288
     76 H          10.8793   -6.1890   -1.3608 H       1  LIG1        0.0462
     77 H          11.1098   -4.4152   -1.3158 H       1  LIG1        0.0462
     78 H          10.9113   -5.4435   -3.7496 H       1  LIG1        0.1487
@<TRIPOS>BOND
     1     1     2    1
     2     2     3   ar
     3     3     4   ar
     4     4     5    1
     5     5     6    2
     6     5     7   am
     7     7     8    1
     8     8     9   ar
     9     9    10   ar
    10    10    11   ar
    11    11    12   ar
    12    12    13    1
    13    13    14    1
    14    13    15    1
    15    15    16    1
    16    16    17   ar
    17    17    18   ar
    18    18    19   ar
    19    19    20    1
    20    19    21   ar
    21    21    22    1
    22    21    23   ar
    23    16    23   ar
    24    13    24    1
    25    24    25    2
    26    24    26   am
    27    27    29    1
    28    29    30    2
    29    30    31    1
    30    31    32    2
    31    31    33    1
    32    33    34    1
    33    34    35    1
    34    34    36    1
    35    27    37    1
    36    38    40    1
    37    40    41    1
    38    41    42    1
    39    42    43   am
    40    38    43    1
    41    43    44    2
    42    12    45   ar
    43     8    45   ar
    44    45    46    2
    45     4    47   ar
    46    47    48   ar
    47     2    48   ar
    48    27    28    1
    49    27    26    1
    50    38    39    1
    51    38    37    1
    52     1    49    1
    53     1    50    1
    54     1    51    1
    55     3    52    1
    56     7    53    1
    57     9    54    1
    58    10    55    1
    59    11    56    1
    60    15    57    1
    61    15    58    1
    62    17    59    1
    63    18    60    1
    64    23    61    1
    65    26    62    1
    66    29    63    1
    67    30    64    1
    68    34    65    1
    69    35    66    1
    70    35    67    1
    71    35    68    1
    72    36    69    1
    73    36    70    1
    74    36    71    1
    75    37    72    1
    76    37    73    1
    77    40    74    1
    78    40    75    1
    79    41    76    1
    80    41    77    1
    81    42    78    1
@<TRIPOS>MOLECULE
*****
 80 83 0 0 0
SMALL
GASTEIGER

@<TRIPOS>ATOM
      1 C           6.3503    2.7651    8.8527 C.3     1  LIG1       -0.0306
      2 C           6.3140    3.8471    9.9245 C.3     1  LIG1        0.0900
      3 O           7.2235    4.8896    9.5484 O.3     1  LIG1       -0.4618
      4 C           8.5125    4.6869    9.9267 C.2     1  LIG1        0.3317
      5 O           8.9228    4.4747   11.0433 O.2     1  LIG1       -0.2456
      6 C           9.2897    4.5798    8.6618 C.2     1  LIG1        0.0203
      7 C          10.5989    4.2940    8.5934 C.2     1  LIG1       -0.0572
      8 C          11.2552    3.8914    7.2860 C.3     1  LIG1        0.0427
      9 H          10.7895    2.9502    6.9752 H       1  LIG1        0.0543
     10 C          12.7812    3.6542    7.3676 C.3     1  LIG1       -0.0197
     11 C          13.2356    2.5809    8.3786 C.3     1  LIG1        0.0389
     12 H          12.9682    2.8642    9.4013 H       1  LIG1        0.0395
     13 C          12.7408    1.1543    8.0874 C.3     1  LIG1       -0.0262
     14 C          13.8253    0.5391    7.2229 C.3     1  LIG1        0.0123
     15 N          15.0102    1.2021    7.6672 N.am    1  LIG1       -0.3151
     16 C          14.7438    2.3855    8.3238 C.2     1  LIG1        0.2162
     17 O          15.5903    3.1462    8.7596 O.2     1  LIG1       -0.2755
     18 N          10.9223    4.8914    6.2745 N.am    1  LIG1       -0.3073
     19 C          10.6993    4.5801    4.9417 C.2     1  LIG1        0.2368
     20 O          10.7218    3.4165    4.5404 O.2     1  LIG1       -0.2735
     21 C          10.2736    5.7735    4.0286 C.3     1  LIG1        0.1171
     22 H           9.3206    6.1339    4.4408 H       1  LIG1        0.0628
     23 C           9.9637    5.2874    2.5735 C.3     1  LIG1        0.0018
     24 C           9.4626    6.3056    1.5525 C.ar    1  LIG1       -0.0449
     25 C           9.1941    5.8859    0.2364 C.ar    1  LIG1       -0.0585
     26 C           8.7277    6.7886   -0.7289 C.ar    1  LIG1       -0.0615
     27 C           8.5312    8.1268   -0.3999 C.ar    1  LIG1       -0.0617
     28 C           8.7982    8.5606    0.8924 C.ar    1  LIG1       -0.0615
     29 C           9.2478    7.6567    1.8578 C.ar    1  LIG1       -0.0585
     30 N          11.2610    6.8800    4.1505 N.ar    1  LIG1       -0.3015
     31 C          12.2675    7.0243    3.2077 C.ar    1  LIG1        0.0089
     32 C          13.0961    8.0672    3.2319 C.ar    1  LIG1       -0.0435
     33 C          13.0052    9.0349    4.2830 C.ar    1  LIG1       -0.0337
     34 C          12.0916    8.9550    5.2625 C.ar    1  LIG1        0.1013
     35 N          11.9978    9.8084    6.3512 N.am    1  LIG1       -0.2463
     36 C          13.0163   10.5246    6.9511 C.2     1  LIG1        0.4050
     37 O          12.9217   10.9545    8.0922 O.2     1  LIG1       -0.2261
     38 O          14.1320   10.5938    6.1897 O.3     1  LIG1       -0.4454
     39 C          15.4136   10.7203    6.8170 C.3     1  LIG1        0.1191
     40 C          15.9453    9.3354    7.1115 C.ar    1  LIG1       -0.0103
     41 C          17.0963    8.8294    6.4893 C.ar    1  LIG1       -0.0554
     42 C          17.5629    7.5471    6.8039 C.ar    1  LIG1       -0.0614
     43 C          16.8763    6.7531    7.7225 C.ar    1  LIG1       -0.0617
     44 C          15.7235    7.2367    8.3292 C.ar    1  LIG1       -0.0614
     45 C          15.2710    8.5195    8.0337 C.ar    1  LIG1       -0.0554
     46 C          11.1059    7.8031    5.1983 C.ar    1  LIG1        0.2734
     47 O          10.2494    7.6854    6.0780 O.2     1  LIG1       -0.2656
     48 H           5.5866    2.0028    9.0266 H       1  LIG1        0.0262
     49 H           7.3298    2.2776    8.8307 H       1  LIG1        0.0262
     50 H           6.1951    3.2033    7.8609 H       1  LIG1        0.0262
     51 H           6.5349    3.4413   10.9154 H       1  LIG1        0.0695
     52 H           5.3101    4.2892    9.9570 H       1  LIG1        0.0695
     53 H           8.6836    4.6099    7.7613 H       1  LIG1        0.0686
     54 H          11.1737    4.2329    9.5126 H       1  LIG1        0.0593
     55 H          13.2831    4.6011    7.6104 H       1  LIG1        0.0293
     56 H          13.1489    3.3849    6.3675 H       1  LIG1        0.0293
     57 H          11.7540    1.0928    7.6258 H       1  LIG1        0.0288
     58 H          12.6892    0.6031    9.0366 H       1  LIG1        0.0288
     59 H          13.6832    0.7560    6.1603 H       1  LIG1        0.0462
     60 H          13.9233   -0.5400    7.3704 H       1  LIG1        0.0462
     61 H          15.9614    0.9092    7.4779 H       1  LIG1        0.1487
     62 H          10.7675    5.8507    6.5772 H       1  LIG1        0.1493
     63 H           9.1939    4.5056    2.6381 H       1  LIG1        0.0338
     64 H          10.8489    4.7890    2.1538 H       1  LIG1        0.0338
     65 H           9.3388    4.8463   -0.0531 H       1  LIG1        0.0620
     66 H           8.5135    6.4481   -1.7393 H       1  LIG1        0.0618
     67 H           8.1664    8.8304   -1.1436 H       1  LIG1        0.0618
     68 H           8.6530    9.6039    1.1607 H       1  LIG1        0.0618
     69 H           9.4285    8.0509    2.8512 H       1  LIG1        0.0620
     70 H          12.3473    6.3013    2.4037 H       1  LIG1        0.0810
     71 H          13.8478    8.2162    2.4644 H       1  LIG1        0.0633
     72 H          13.7351    9.8289    4.2177 H       1  LIG1        0.0638
     73 H          11.1865    9.6815    6.9487 H       1  LIG1        0.1583
     74 H          15.3838   11.3422    7.7170 H       1  LIG1        0.0749
     75 H          16.0598   11.2248    6.0881 H       1  LIG1        0.0749
     76 H          17.6461    9.4227    5.7617 H       1  LIG1        0.0621
     77 H          18.4668    7.1630    6.3374 H       1  LIG1        0.0618
     78 H          17.2356    5.7580    7.9752 H       1  LIG1        0.0618
     79 H          15.1800    6.6223    9.0422 H       1  LIG1        0.0618
     80 H          14.3796    8.8789    8.5404 H       1  LIG1        0.0621
@<TRIPOS>BOND
     1     1     2    1
     2     2     3    1
     3     3     4    1
     4     4     5    2
     5     4     6    1
     6     6     7    2
     7     8    10    1
     8    10    11    1
     9    11    12    1
    10    11    13    1
    11    13    14    1
    12    14    15    1
    13    15    16   am
    14    11    16    1
    15    16    17    2
    16     8    18    1
    17    18    19   am
    18    19    20    2
    19    21    23    1
    20    23    24    1
    21    24    25   ar
    22    25    26   ar
    23    26    27   ar
    24    27    28   ar
    25    28    29   ar
    26    24    29   ar
    27    21    30    1
    28    30    31   ar
    29    31    32   ar
    30    32    33   ar
    31    33    34   ar
    32    34    35    1
    33    35    36   am
    34    36    37    2
    35    36    38    1
    36    38    39    1
    37    39    40    1
    38    40    41   ar
    39    41    42   ar
    40    42    43   ar
    41    43    44   ar
    42    44    45   ar
    43    40    45   ar
    44    34    46   ar
    45    30    46   ar
    46    46    47    2
    47     8     9    1
    48     8     7    1
    49    21    22    1
    50    21    19    1
    51     1    48    1
    52     1    49    1
    53     1    50    1
    54     2    51    1
    55     2    52    1
    56     6    53    1
    57     7    54    1
    58    10    55    1
    59    10    56    1
    60    13    57    1
    61    13    58    1
    62    14    59    1
    63    14    60    1
    64    15    61    1
    65    18    62    1
    66    23    63    1
    67    23    64    1
    68    25    65    1
    69    26    66    1
    70    27    67    1
    71    28    68    1
    72    29    69    1
    73    31    70    1
    74    32    71    1
    75    33    72    1
    76    35    73    1
    77    39    74    1
    78    39    75    1
    79    41    76    1
    80    42    77    1
    81    43    78    1
    82    44    79    1
    83    45    80    1
@<TRIPOS>MOLECULE
*****
 73 75 0 0 0
SMALL
GASTEIGER

@<TRIPOS>ATOM
      1 C          -1.7052   -4.3496   -8.4724 C.1     1  LIG1       -0.1191
      2 C          -1.9230   -4.6949   -7.3291 C.1     1  LIG1       -0.1030
      3 C          -2.1582   -5.1115   -5.9360 C.3     1  LIG1        0.0383
      4 C          -0.8838   -5.6119   -5.2108 C.3     1  LIG1        0.1239
      5 H          -0.2245   -4.7402   -5.1149 H       1  LIG1        0.0634
      6 C          -1.2517   -5.9957   -3.7501 C.2     1  LIG1        0.2374
      7 O          -1.6245   -7.1184   -3.4146 O.2     1  LIG1       -0.2735
      8 N          -1.2068   -4.9523   -2.8370 N.am    1  LIG1       -0.3073
      9 C          -1.5869   -5.1467   -1.4391 C.3     1  LIG1        0.0427
     10 H          -1.4125   -6.1963   -1.1826 H       1  LIG1        0.0543
     11 C          -3.0587   -4.8544   -1.3229 C.2     1  LIG1       -0.0572
     12 C          -4.0252   -5.5149   -1.9834 C.2     1  LIG1        0.0203
     13 C          -5.4302   -5.2078   -1.6987 C.2     1  LIG1        0.3322
     14 O          -5.7947   -4.1631   -1.1838 O.2     1  LIG1       -0.2456
     15 O          -6.1826   -6.2781   -2.0714 O.3     1  LIG1       -0.4558
     16 C          -7.6120   -6.2409   -1.8335 C.3     1  LIG1        0.1055
     17 C          -7.8923   -6.2200   -0.3266 C.3     1  LIG1       -0.0254
     18 C          -8.2092   -5.0136   -2.5211 C.3     1  LIG1       -0.0254
     19 C          -8.2369   -7.4944   -2.4824 C.3     1  LIG1       -0.0254
     20 C          -0.7215   -4.2564   -0.5054 C.3     1  LIG1       -0.0197
     21 C          -1.0413   -4.4138    0.9941 C.3     1  LIG1        0.0389
     22 H          -2.0930   -4.1910    1.1969 H       1  LIG1        0.0395
     23 C          -0.1872   -3.5291    1.9228 C.3     1  LIG1       -0.0262
     24 C           0.9035   -4.4434    2.4463 C.3     1  LIG1        0.0123
     25 N           0.3044   -5.7376    2.4020 N.am    1  LIG1       -0.3151
     26 C          -0.7338   -5.8085    1.5039 C.2     1  LIG1        0.2162
     27 O          -1.2860   -6.8404    1.1677 O.2     1  LIG1       -0.2755
     28 N          -0.1122   -6.6330   -5.9730 N.ar    1  LIG1       -0.3009
     29 C          -0.3857   -7.9884   -5.8609 C.ar    1  LIG1        0.0089
     30 C           0.2949   -8.9006   -6.5595 C.ar    1  LIG1       -0.0435
     31 C           1.2687   -8.4936   -7.5330 C.ar    1  LIG1       -0.0338
     32 C           1.5910   -7.2049   -7.7139 C.ar    1  LIG1        0.0991
     33 N           2.4824   -6.7251   -8.6623 N.am    1  LIG1       -0.2758
     34 C           3.2510   -7.4551   -9.5597 C.2     1  LIG1        0.2700
     35 O           3.2608   -8.6798   -9.6469 O.2     1  LIG1       -0.2681
     36 C           4.1274   -6.6453  -10.4152 C.ar    1  LIG1        0.1681
     37 C           5.3574   -7.0396  -11.0170 C.ar    1  LIG1        0.0125
     38 C           5.7776   -5.9308  -11.7104 C.ar    1  LIG1        0.1350
     39 C           6.9598   -5.5926  -12.5287 C.3     1  LIG1       -0.0037
     40 O           4.8544   -4.9433  -11.5616 O.2     1  LIG1       -0.3592
     41 N           3.8303   -5.3758  -10.7385 N.ar    1  LIG1       -0.0734
     42 C           0.9173   -6.1762   -6.8160 C.ar    1  LIG1        0.2733
     43 O           1.2933   -5.0033   -6.8720 O.2     1  LIG1       -0.2656
     44 H          -1.4794   -4.0483   -9.4618 H       1  LIG1        0.1228
     45 H          -2.9538   -5.8664   -5.9090 H       1  LIG1        0.0422
     46 H          -2.5558   -4.2417   -5.3923 H       1  LIG1        0.0422
     47 H          -1.1207   -4.0054   -3.1805 H       1  LIG1        0.1493
     48 H          -3.3613   -4.1114   -0.5869 H       1  LIG1        0.0593
     49 H          -3.8395   -6.3046   -2.6966 H       1  LIG1        0.0686
     50 H          -7.4586   -5.3293    0.1387 H       1  LIG1        0.0268
     51 H          -7.4405   -7.0777    0.1847 H       1  LIG1        0.0268
     52 H          -8.9658   -6.2052   -0.1181 H       1  LIG1        0.0268
     53 H          -7.8613   -4.0889   -2.0580 H       1  LIG1        0.0268
     54 H          -9.2991   -5.0050   -2.4574 H       1  LIG1        0.0268
     55 H          -7.8949   -4.9775   -3.5696 H       1  LIG1        0.0268
     56 H          -7.9006   -8.4261   -2.0131 H       1  LIG1        0.0268
     57 H          -7.9608   -7.5655   -3.5420 H       1  LIG1        0.0268
     58 H          -9.3326   -7.4689   -2.4259 H       1  LIG1        0.0268
     59 H          -0.8544   -3.2021   -0.7874 H       1  LIG1        0.0293
     60 H           0.3371   -4.4860   -0.6860 H       1  LIG1        0.0293
     61 H          -0.8118   -3.2050    2.7671 H       1  LIG1        0.0288
     62 H           0.2099   -2.6259    1.4506 H       1  LIG1        0.0288
     63 H           1.2072   -4.2069    3.4699 H       1  LIG1        0.0462
     64 H           1.7795   -4.4509    1.7919 H       1  LIG1        0.0462
     65 H           0.7088   -6.5902    2.7711 H       1  LIG1        0.1487
     66 H          -1.1461   -8.3253   -5.1657 H       1  LIG1        0.0810
     67 H           0.1047   -9.9617   -6.4303 H       1  LIG1        0.0633
     68 H           1.6907   -9.2912   -8.1315 H       1  LIG1        0.0638
     69 H           2.5792   -5.7095   -8.6917 H       1  LIG1        0.1553
     70 H           5.8613   -7.9918  -10.9252 H       1  LIG1        0.0676
     71 H           7.4615   -6.4885  -12.9073 H       1  LIG1        0.0309
     72 H           7.6835   -5.0207  -11.9382 H       1  LIG1        0.0309
     73 H           6.6705   -4.9805  -13.3893 H       1  LIG1        0.0309
@<TRIPOS>BOND
     1     1     2    3
     2     2     3    1
     3     3     4    1
     4     4     5    1
     5     4     6    1
     6     6     7    2
     7     6     8   am
     8     9    11    1
     9    11    12    2
    10    12    13    1
    11    13    14    2
    12    13    15    1
    13    15    16    1
    14    16    17    1
    15    16    18    1
    16    16    19    1
    17     9    20    1
    18    21    23    1
    19    23    24    1
    20    24    25    1
    21    25    26   am
    22    21    26    1
    23    26    27    2
    24     4    28    1
    25    28    29   ar
    26    29    30   ar
    27    30    31   ar
    28    31    32   ar
    29    32    33    1
    30    33    34   am
    31    34    35    2
    32    34    36    1
    33    36    37   ar
    34    37    38   ar
    35    38    39    1
    36    38    40   ar
    37    40    41   ar
    38    36    41   ar
    39    32    42   ar
    40    28    42   ar
    41    42    43    2
    42     9    10    1
    43     9     8    1
    44    21    22    1
    45    21    20    1
    46     1    44    1
    47     3    45    1
    48     3    46    1
    49     8    47    1
    50    11    48    1
    51    12    49    1
    52    17    50    1
    53    17    51    1
    54    17    52    1
    55    18    53    1
    56    18    54    1
    57    18    55    1
    58    19    56    1
    59    19    57    1
    60    19    58    1
    61    20    59    1
    62    20    60    1
    63    23    61    1
    64    23    62    1
    65    24    63    1
    66    24    64    1
    67    25    65    1
    68    29    66    1
    69    30    67    1
    70    31    68    1
    71    33    69    1
    72    37    70    1
    73    39    71    1
    74    39    72    1
    75    39    73    1
@<TRIPOS>MOLECULE
*****
 75 78 0 0 0
SMALL
GASTEIGER

@<TRIPOS>ATOM
      1 C          -6.9522    0.7106    0.9547 C.3     1  LIG1       -0.0629
      2 C          -6.8882    1.2912    2.3632 C.3     1  LIG1       -0.0263
      3 C          -6.7829    2.8281    2.4282 C.3     1  LIG1        0.1129
      4 H          -6.6233    3.0822    3.4869 H       1  LIG1        0.0625
      5 C          -5.4930    3.3233    1.6640 C.2     1  LIG1        0.2364
      6 O          -5.5096    3.6414    0.4735 O.2     1  LIG1       -0.2735
      7 N          -4.2958    3.2974    2.3663 N.am    1  LIG1       -0.3073
      8 C          -3.0215    3.6642    1.7232 C.3     1  LIG1        0.0427
      9 H          -3.2320    4.4091    0.9481 H       1  LIG1        0.0543
     10 C          -2.4464    2.4115    1.1306 C.2     1  LIG1       -0.0572
     11 C          -2.1634    2.2182   -0.1873 C.2     1  LIG1        0.0203
     12 C          -1.5098    0.9928   -0.6810 C.2     1  LIG1        0.3320
     13 O          -1.6035    0.5903   -1.8574 O.2     1  LIG1       -0.2456
     14 O          -0.7672    0.4447    0.3101 O.3     1  LIG1       -0.4568
     15 C           0.0879   -0.6427   -0.0585 C.3     1  LIG1        0.1178
     16 C           1.4123   -0.1026   -0.5336 C.ar    1  LIG1       -0.0103
     17 C           2.4377    0.2088    0.3697 C.ar    1  LIG1       -0.0554
     18 C           3.6534    0.7168   -0.0930 C.ar    1  LIG1       -0.0614
     19 C           3.8489    0.9330   -1.4562 C.ar    1  LIG1       -0.0617
     20 C           2.8279    0.6488   -2.3586 C.ar    1  LIG1       -0.0614
     21 C           1.6164    0.1374   -1.8992 C.ar    1  LIG1       -0.0554
     22 C          -2.0326    4.2521    2.7587 C.3     1  LIG1       -0.0197
     23 C          -0.6757    4.6952    2.1758 C.3     1  LIG1        0.0389
     24 H          -0.1563    3.8814    1.6562 H       1  LIG1        0.0395
     25 C           0.2564    5.2847    3.2535 C.3     1  LIG1       -0.0262
     26 C          -0.1350    6.7491    3.3181 C.3     1  LIG1        0.0123
     27 N          -0.5545    7.0284    1.9791 N.am    1  LIG1       -0.3151
     28 C          -0.8393    5.8883    1.2708 C.2     1  LIG1        0.2162
     29 O          -1.2268    5.8632    0.0987 O.2     1  LIG1       -0.2755
     30 N          -8.0282    3.5486    2.0344 N.ar    1  LIG1       -0.3018
     31 C          -8.3178    3.7862    0.6999 C.ar    1  LIG1        0.0089
     32 C          -9.2007    4.7193    0.3385 C.ar    1  LIG1       -0.0435
     33 C          -9.7102    5.6232    1.3317 C.ar    1  LIG1       -0.0338
     34 C          -9.5420    5.4007    2.6446 C.ar    1  LIG1        0.0991
     35 N          -9.8324    6.3054    3.6595 N.am    1  LIG1       -0.2758
     36 C         -10.3552    7.5795    3.5165 C.2     1  LIG1        0.2700
     37 O         -10.7273    8.0646    2.4404 O.2     1  LIG1       -0.2681
     38 C         -10.5173    8.3696    4.7383 C.ar    1  LIG1        0.1681
     39 C         -11.4784    9.3988    4.9346 C.ar    1  LIG1        0.0125
     40 C         -11.2245    9.8903    6.1876 C.ar    1  LIG1        0.1350
     41 C         -11.8486   10.9346    7.0250 C.3     1  LIG1       -0.0037
     42 O         -10.1656    9.2167    6.7172 O.2     1  LIG1       -0.3592
     43 N          -9.7321    8.2413    5.8222 N.ar    1  LIG1       -0.0734
     44 C          -8.8705    4.0872    3.0240 C.ar    1  LIG1        0.2733
     45 O          -8.9999    3.6259    4.1585 O.2     1  LIG1       -0.2656
     46 H          -7.2269   -0.3479    0.9892 H       1  LIG1        0.0231
     47 H          -5.9819    0.7898    0.4534 H       1  LIG1        0.0231
     48 H          -7.7019    1.2018    0.3352 H       1  LIG1        0.0231
     49 H          -6.0093    0.8546    2.8570 H       1  LIG1        0.0287
     50 H          -7.7648    0.9537    2.9289 H       1  LIG1        0.0287
     51 H          -4.3379    3.3143    3.3771 H       1  LIG1        0.1493
     52 H          -2.1811    1.6296    1.8322 H       1  LIG1        0.0593
     53 H          -2.4044    2.9593   -0.9436 H       1  LIG1        0.0686
     54 H          -0.3789   -1.2960   -0.8101 H       1  LIG1        0.0749
     55 H           0.2396   -1.2649    0.8281 H       1  LIG1        0.0749
     56 H           2.3032    0.0563    1.4376 H       1  LIG1        0.0621
     57 H           4.4487    0.9411    0.6120 H       1  LIG1        0.0618
     58 H           4.7942    1.3263   -1.8186 H       1  LIG1        0.0618
     59 H           2.9688    0.8241   -3.4216 H       1  LIG1        0.0618
     60 H           0.8227   -0.0685   -2.6152 H       1  LIG1        0.0621
     61 H          -1.8459    3.5108    3.5481 H       1  LIG1        0.0293
     62 H          -2.5220    5.1015    3.2516 H       1  LIG1        0.0293
     63 H           1.2971    5.2072    2.9100 H       1  LIG1        0.0288
     64 H           0.1915    4.7822    4.2235 H       1  LIG1        0.0288
     65 H           0.6976    7.4021    3.5927 H       1  LIG1        0.0462
     66 H          -0.9783    6.9236    3.9930 H       1  LIG1        0.0462
     67 H          -0.6669    7.9479    1.5672 H       1  LIG1        0.1487
     68 H          -7.7881    3.2231   -0.0592 H       1  LIG1        0.0810
     69 H          -9.4012    4.9281   -0.7054 H       1  LIG1        0.0633
     70 H         -10.1141    6.5424    0.9332 H       1  LIG1        0.0638
     71 H          -9.5905    6.0026    4.6038 H       1  LIG1        0.1553
     72 H         -12.2467    9.7101    4.2420 H       1  LIG1        0.0676
     73 H         -12.6576   11.4415    6.4870 H       1  LIG1        0.0309
     74 H         -11.1178   11.6928    7.3222 H       1  LIG1        0.0309
     75 H         -12.2767   10.4936    7.9306 H       1  LIG1        0.0309
@<TRIPOS>BOND
     1     1     2    1
     2     2     3    1
     3     3     4    1
     4     3     5    1
     5     5     6    2
     6     5     7   am
     7     8    10    1
     8    10    11    2
     9    11    12    1
    10    12    13    2
    11    12    14    1
    12    14    15    1
    13    15    16    1
    14    16    17   ar
    15    17    18   ar
    16    18    19   ar
    17    19    20   ar
    18    20    21   ar
    19    16    21   ar
    20     8    22    1
    21    23    25    1
    22    25    26    1
    23    26    27    1
    24    27    28   am
    25    23    28    1
    26    28    29    2
    27     3    30    1
    28    30    31   ar
    29    31    32   ar
    30    32    33   ar
    31    33    34   ar
    32    34    35    1
    33    35    36   am
    34    36    37    2
    35    36    38    1
    36    38    39   ar
    37    39    40   ar
    38    40    41    1
    39    40    42   ar
    40    42    43   ar
    41    38    43   ar
    42    34    44   ar
    43    30    44   ar
    44    44    45    2
    45     8     9    1
    46     8     7    1
    47    23    24    1
    48    23    22    1
    49     1    46    1
    50     1    47    1
    51     1    48    1
    52     2    49    1
    53     2    50    1
    54     7    51    1
    55    10    52    1
    56    11    53    1
    57    15    54    1
    58    15    55    1
    59    17    56    1
    60    18    57    1
    61    19    58    1
    62    20    59    1
    63    21    60    1
    64    22    61    1
    65    22    62    1
    66    25    63    1
    67    25    64    1
    68    26    65    1
    69    26    66    1
    70    27    67    1
    71    31    68    1
    72    32    69    1
    73    33    70    1
    74    35    71    1
    75    39    72    1
    76    41    73    1
    77    41    74    1
    78    41    75    1
@<TRIPOS>MOLECULE
*****
 76 78 0 0 0
SMALL
GASTEIGER

@<TRIPOS>ATOM
      1 C           6.5095    5.8447   -2.5704 C.1     1  LIG1       -0.1191
      2 C           5.5341    5.2068   -2.9216 C.1     1  LIG1       -0.1030
      3 C           4.3553    4.4816   -3.4191 C.3     1  LIG1        0.0383
      4 C           4.2531    4.5054   -4.9728 C.3     1  LIG1        0.1239
      5 H           5.1363    3.9875   -5.3680 H       1  LIG1        0.0634
      6 C           2.9871    3.7077   -5.4299 C.2     1  LIG1        0.2374
      7 O           1.9707    3.6221   -4.7406 O.2     1  LIG1       -0.2735
      8 N           3.0374    3.2190   -6.7265 N.am    1  LIG1       -0.3073
      9 C           1.9064    2.5473   -7.3732 C.3     1  LIG1        0.0427
     10 H           1.3940    1.9796   -6.5909 H       1  LIG1        0.0543
     11 C           2.4631    1.5815   -8.3853 C.2     1  LIG1       -0.0572
     12 C           3.3320    0.5961   -8.1356 C.2     1  LIG1        0.0203
     13 C           3.6121   -0.4398   -9.1533 C.2     1  LIG1        0.3317
     14 O           2.8719   -0.7793  -10.0588 O.2     1  LIG1       -0.2456
     15 O           4.7615   -1.0504   -8.7844 O.3     1  LIG1       -0.4610
     16 C           4.5691   -2.4021   -8.3517 C.3     1  LIG1        0.0976
     17 C           5.3734   -3.4168   -9.1866 C.3     1  LIG1       -0.0035
     18 C           5.2104   -4.8105   -8.5557 C.3     1  LIG1       -0.0570
     19 C           4.8439   -3.4604  -10.6265 C.3     1  LIG1       -0.0570
     20 C           6.8643   -3.0479   -9.2273 C.3     1  LIG1       -0.0570
     21 C           0.8813    3.5230   -8.0365 C.3     1  LIG1       -0.0197
     22 C          -0.4644    2.8811   -8.4814 C.3     1  LIG1        0.0389
     23 H          -1.0931    3.6298   -8.9806 H       1  LIG1        0.0395
     24 C          -1.2434    2.2463   -7.3166 C.3     1  LIG1       -0.0262
     25 C          -1.6636    0.8745   -7.8087 C.3     1  LIG1        0.0123
     26 N          -0.7345    0.5743   -8.8472 N.am    1  LIG1       -0.3151
     27 C          -0.3119    1.7320   -9.4615 C.2     1  LIG1        0.2162
     28 O           0.1360    1.8005  -10.5926 O.2     1  LIG1       -0.2755
     29 N           4.2535    5.9082   -5.4958 N.ar    1  LIG1       -0.3009
     30 C           3.0557    6.5917   -5.6236 C.ar    1  LIG1        0.0089
     31 C           3.0314    7.8834   -5.9560 C.ar    1  LIG1       -0.0435
     32 C           4.2508    8.6496   -5.9616 C.ar    1  LIG1       -0.0338
     33 C           5.4611    8.0745   -5.8645 C.ar    1  LIG1        0.0991
     34 N           6.6803    8.7557   -5.7674 N.am    1  LIG1       -0.2758
     35 C           6.8847   10.1383   -5.7059 C.2     1  LIG1        0.2700
     36 O           5.9825   10.9714   -5.7604 O.2     1  LIG1       -0.2681
     37 C           8.2765   10.5941   -5.4995 C.ar    1  LIG1        0.1681
     38 C           8.6876   11.8516   -4.9560 C.ar    1  LIG1        0.0125
     39 C          10.0560   11.7738   -4.8657 C.ar    1  LIG1        0.1350
     40 C          11.1065   12.6287   -4.2651 C.3     1  LIG1       -0.0037
     41 O          10.4595   10.5988   -5.4232 O.2     1  LIG1       -0.3592
     42 N           9.3522    9.8449   -5.7953 N.ar    1  LIG1       -0.0734
     43 C           5.4757    6.5400   -5.8134 C.ar    1  LIG1        0.2733
     44 O           6.5303    5.9339   -6.0038 O.2     1  LIG1       -0.2656
     45 H           7.3625    6.4169   -2.3207 H       1  LIG1        0.1228
     46 H           3.4549    4.9109   -2.9605 H       1  LIG1        0.0422
     47 H           4.4075    3.4414   -3.0688 H       1  LIG1        0.0422
     48 H           3.9621    3.0156   -7.0854 H       1  LIG1        0.1493
     49 H           2.0786    1.6336   -9.3986 H       1  LIG1        0.0593
     50 H           3.7871    0.4632   -7.1657 H       1  LIG1        0.0686
     51 H           3.5034   -2.6691   -8.3333 H       1  LIG1        0.0703
     52 H           4.9111   -2.4215   -7.3098 H       1  LIG1        0.0703
     53 H           4.1673   -5.1446   -8.6005 H       1  LIG1        0.0236
     54 H           5.5134   -4.8114   -7.5023 H       1  LIG1        0.0236
     55 H           5.8200   -5.5548   -9.0792 H       1  LIG1        0.0236
     56 H           3.8129   -3.8296  -10.6531 H       1  LIG1        0.0236
     57 H           5.4520   -4.1280  -11.2472 H       1  LIG1        0.0236
     58 H           4.8617   -2.4702  -11.0924 H       1  LIG1        0.0236
     59 H           7.2972   -3.0126   -8.2219 H       1  LIG1        0.0236
     60 H           7.0253   -2.0741   -9.7021 H       1  LIG1        0.0236
     61 H           7.4297   -3.7891   -9.8048 H       1  LIG1        0.0236
     62 H           1.3486    4.0009   -8.9102 H       1  LIG1        0.0293
     63 H           0.6477    4.3427   -7.3431 H       1  LIG1        0.0293
     64 H          -2.1053    2.8550   -7.0270 H       1  LIG1        0.0288
     65 H          -0.6311    2.1410   -6.4181 H       1  LIG1        0.0288
     66 H          -2.6609    0.9006   -8.2588 H       1  LIG1        0.0462
     67 H          -1.6290    0.1098   -7.0294 H       1  LIG1        0.0462
     68 H          -0.7312   -0.2860   -9.3854 H       1  LIG1        0.1487
     69 H           2.1256    6.0464   -5.4922 H       1  LIG1        0.0810
     70 H           2.0913    8.3939   -6.1357 H       1  LIG1        0.0633
     71 H           4.1099    9.7234   -5.9752 H       1  LIG1        0.0638
     72 H           7.5055    8.1656   -5.6672 H       1  LIG1        0.1553
     73 H           8.0542   12.6560   -4.6090 H       1  LIG1        0.0676
     74 H          10.8120   12.9406   -3.2562 H       1  LIG1        0.0309
     75 H          11.2906   13.5311   -4.8564 H       1  LIG1        0.0309
     76 H          12.0537   12.0864   -4.1705 H       1  LIG1        0.0309
@<TRIPOS>BOND
     1     1     2    3
     2     2     3    1
     3     3     4    1
     4     4     5    1
     5     4     6    1
     6     6     7    2
     7     6     8   am
     8     9    11    1
     9    11    12    2
    10    12    13    1
    11    13    14    2
    12    13    15    1
    13    15    16    1
    14    16    17    1
    15    17    18    1
    16    17    19    1
    17    17    20    1
    18     9    21    1
    19    22    24    1
    20    24    25    1
    21    25    26    1
    22    26    27   am
    23    22    27    1
    24    27    28    2
    25     4    29    1
    26    29    30   ar
    27    30    31   ar
    28    31    32   ar
    29    32    33   ar
    30    33    34    1
    31    34    35   am
    32    35    36    2
    33    35    37    1
    34    37    38   ar
    35    38    39   ar
    36    39    40    1
    37    39    41   ar
    38    41    42   ar
    39    37    42   ar
    40    33    43   ar
    41    29    43   ar
    42    43    44    2
    43    22    23    1
    44    22    21    1
    45     9    10    1
    46     9     8    1
    47     1    45    1
    48     3    46    1
    49     3    47    1
    50     8    48    1
    51    11    49    1
    52    12    50    1
    53    16    51    1
    54    16    52    1
    55    18    53    1
    56    18    54    1
    57    18    55    1
    58    19    56    1
    59    19    57    1
    60    19    58    1
    61    20    59    1
    62    20    60    1
    63    20    61    1
    64    21    62    1
    65    21    63    1
    66    24    64    1
    67    24    65    1
    68    25    66    1
    69    25    67    1
    70    26    68    1
    71    30    69    1
    72    31    70    1
    73    32    71    1
    74    34    72    1
    75    38    73    1
    76    40    74    1
    77    40    75    1
    78    40    76    1
@<TRIPOS>MOLECULE
*****
 70 72 0 0 0
SMALL
GASTEIGER

@<TRIPOS>ATOM
      1 C          -1.8927    2.2454    0.9295 C.1     1  LIG1       -0.1191
      2 C          -2.5621    1.5900    1.6553 C.1     1  LIG1       -0.1030
      3 C          -3.5277    0.8557    2.5253 C.3     1  LIG1        0.0383
      4 C          -3.0224   -0.5303    3.0220 C.3     1  LIG1        0.1239
      5 H          -2.1837   -0.3030    3.6817 H       1  LIG1        0.0634
      6 C          -4.0900   -1.2261    3.9107 C.2     1  LIG1        0.2374
      7 O          -5.3006   -1.0587    3.7310 O.2     1  LIG1       -0.2735
      8 N          -3.7048   -2.0946    4.9120 N.am    1  LIG1       -0.3073
      9 C          -2.3499   -2.5499    5.2438 C.3     1  LIG1        0.0427
     10 H          -1.6749   -1.7370    4.9793 H       1  LIG1        0.0543
     11 C          -2.0582   -3.7556    4.3854 C.2     1  LIG1       -0.0572
     12 C          -2.9553   -4.6635    3.9570 C.2     1  LIG1        0.0203
     13 C          -2.5575   -5.7899    3.0887 C.2     1  LIG1        0.3319
     14 O          -1.4212   -6.0111    2.7069 O.2     1  LIG1       -0.2456
     15 O          -3.6756   -6.5001    2.7839 O.3     1  LIG1       -0.4588
     16 C          -3.4950   -7.5393    1.8048 C.3     1  LIG1        0.0978
     17 C          -2.9629   -8.8082    2.4621 C.3     1  LIG1       -0.0280
     18 C          -4.8427   -7.8120    1.1437 C.3     1  LIG1       -0.0280
     19 C          -2.1524   -2.8354    6.7684 C.3     1  LIG1       -0.0197
     20 C          -0.6835   -3.1477    7.1664 C.3     1  LIG1        0.0389
     21 H          -0.2676   -3.9444    6.5419 H       1  LIG1        0.0395
     22 C          -0.4376   -3.5051    8.6528 C.3     1  LIG1       -0.0262
     23 C          -0.3162   -2.1630    9.3451 C.3     1  LIG1        0.0123
     24 N           0.3148   -1.3620    8.3452 N.am    1  LIG1       -0.3151
     25 C           0.1976   -1.9107    7.0819 C.2     1  LIG1        0.2162
     26 O           0.7164   -1.4635    6.0766 O.2     1  LIG1       -0.2755
     27 N          -2.5445   -1.3743    1.8984 N.ar    1  LIG1       -0.3009
     28 C          -3.4198   -1.7112    0.8726 C.ar    1  LIG1        0.0089
     29 C          -2.9597   -2.1141   -0.3146 C.ar    1  LIG1       -0.0435
     30 C          -1.5503   -2.2538   -0.5344 C.ar    1  LIG1       -0.0338
     31 C          -0.6432   -2.0617    0.4333 C.ar    1  LIG1        0.0991
     32 N           0.7227   -2.2554    0.2805 N.am    1  LIG1       -0.2758
     33 C           1.3673   -2.6290   -0.8907 C.2     1  LIG1        0.2700
     34 O           0.8136   -2.8525   -1.9642 O.2     1  LIG1       -0.2681
     35 C           2.8118   -2.7931   -0.7963 C.ar    1  LIG1        0.1681
     36 C           3.5918   -3.6799   -1.5833 C.ar    1  LIG1        0.0125
     37 C           4.8784   -3.4648   -1.1684 C.ar    1  LIG1        0.1350
     38 C           6.1805   -4.0559   -1.5185 C.3     1  LIG1       -0.0037
     39 O           4.8838   -2.4928   -0.2164 O.2     1  LIG1       -0.3592
     40 N           3.5837   -2.0806    0.0379 N.ar    1  LIG1       -0.0734
     41 C          -1.1515   -1.5006    1.7468 C.ar    1  LIG1        0.2733
     42 O          -0.3369   -1.1207    2.5881 O.2     1  LIG1       -0.2656
     43 H          -1.3508    2.8854    0.2571 H       1  LIG1        0.1228
     44 H          -4.4618    0.7463    1.9688 H       1  LIG1        0.0422
     45 H          -3.7450    1.4763    3.3950 H       1  LIG1        0.0422
     46 H          -4.4870   -2.6193    5.2877 H       1  LIG1        0.1493
     47 H          -1.0181   -3.8480    4.0689 H       1  LIG1        0.0593
     48 H          -4.0083   -4.6082    4.2038 H       1  LIG1        0.0686
     49 H          -2.8044   -7.1917    1.0277 H       1  LIG1        0.0728
     50 H          -3.5450   -9.0700    3.3528 H       1  LIG1        0.0265
     51 H          -1.9282   -8.6704    2.7904 H       1  LIG1        0.0265
     52 H          -2.9866   -9.6513    1.7645 H       1  LIG1        0.0265
     53 H          -5.5339   -8.3054    1.8359 H       1  LIG1        0.0265
     54 H          -4.7173   -8.4590    0.2690 H       1  LIG1        0.0265
     55 H          -5.3196   -6.8801    0.8226 H       1  LIG1        0.0265
     56 H          -2.7992   -3.6718    7.0675 H       1  LIG1        0.0293
     57 H          -2.5056   -1.9600    7.3286 H       1  LIG1        0.0293
     58 H           0.5369   -4.0163    8.7218 H       1  LIG1        0.0288
     59 H          -1.1795   -4.1472    9.1300 H       1  LIG1        0.0288
     60 H           0.2925   -2.1981   10.2531 H       1  LIG1        0.0462
     61 H          -1.2966   -1.7348    9.5730 H       1  LIG1        0.0462
     62 H           0.9473   -0.5889    8.5189 H       1  LIG1        0.1487
     63 H          -4.4866   -1.5713    1.0287 H       1  LIG1        0.0810
     64 H          -3.6143   -2.3183   -1.1554 H       1  LIG1        0.0633
     65 H          -1.2753   -2.5293   -1.5428 H       1  LIG1        0.0638
     66 H           1.2966   -2.1138    1.1131 H       1  LIG1        0.1553
     67 H           3.2372   -4.3812   -2.3256 H       1  LIG1        0.0676
     68 H           6.1150   -4.6377   -2.4437 H       1  LIG1        0.0309
     69 H           6.5183   -4.7243   -0.7206 H       1  LIG1        0.0309
     70 H           6.9338   -3.2758   -1.6596 H       1  LIG1        0.0309
@<TRIPOS>BOND
     1     1     2    3
     2     2     3    1
     3     3     4    1
     4     4     5    1
     5     4     6    1
     6     6     7    2
     7     6     8   am
     8     9    11    1
     9    11    12    2
    10    12    13    1
    11    13    14    2
    12    13    15    1
    13    15    16    1
    14    16    17    1
    15    16    18    1
    16     9    19    1
    17    20    22    1
    18    22    23    1
    19    23    24    1
    20    24    25   am
    21    20    25    1
    22    25    26    2
    23     4    27    1
    24    27    28   ar
    25    28    29   ar
    26    29    30   ar
    27    30    31   ar
    28    31    32    1
    29    32    33   am
    30    33    34    2
    31    33    35    1
    32    35    36   ar
    33    36    37   ar
    34    37    38    1
    35    37    39   ar
    36    39    40   ar
    37    35    40   ar
    38    31    41   ar
    39    27    41   ar
    40    41    42    2
    41     9    10    1
    42     9     8    1
    43    20    21    1
    44    20    19    1
    45     1    43    1
    46     3    44    1
    47     3    45    1
    48     8    46    1
    49    11    47    1
    50    12    48    1
    51    16    49    1
    52    17    50    1
    53    17    51    1
    54    17    52    1
    55    18    53    1
    56    18    54    1
    57    18    55    1
    58    19    56    1
    59    19    57    1
    60    22    58    1
    61    22    59    1
    62    23    60    1
    63    23    61    1
    64    24    62    1
    65    28    63    1
    66    29    64    1
    67    30    65    1
    68    32    66    1
    69    36    67    1
    70    38    68    1
    71    38    69    1
    72    38    70    1
@<TRIPOS>MOLECULE
*****
 71 73 0 0 0
SMALL
GASTEIGER

@<TRIPOS>ATOM
      1 C           2.4429    5.7842   -4.3236 C.3     1  LIG1       -0.0629
      2 C           2.0633    4.3107   -4.2285 C.3     1  LIG1       -0.0263
      3 C           0.8834    3.8714   -5.1434 C.3     1  LIG1        0.1129
      4 H           1.2298    3.9819   -6.1792 H       1  LIG1        0.0625
      5 C           0.6591    2.3473   -4.8722 C.2     1  LIG1        0.2364
      6 O           0.3008    1.9395   -3.7686 O.2     1  LIG1       -0.2735
      7 N           0.9756    1.4997   -5.9278 N.am    1  LIG1       -0.3073
      8 C           0.7906    0.0321   -5.9389 C.3     1  LIG1        0.0427
      9 H           1.4016   -0.3181   -6.7813 H       1  LIG1        0.0543
     10 C          -0.6343   -0.2873   -6.2935 C.2     1  LIG1       -0.0572
     11 C          -1.5068    0.5407   -6.9081 C.2     1  LIG1        0.0203
     12 C          -2.8740    0.1305   -7.2746 C.2     1  LIG1        0.3319
     13 O          -3.7607    0.9362   -7.5413 O.2     1  LIG1       -0.2456
     14 O          -2.9422   -1.2051   -7.3355 O.3     1  LIG1       -0.4588
     15 C          -4.1708   -1.7924   -7.7856 C.3     1  LIG1        0.0978
     16 C          -3.8143   -2.7168   -8.9390 C.3     1  LIG1       -0.0280
     17 C          -4.7650   -2.5565   -6.6142 C.3     1  LIG1       -0.0280
     18 C           1.3094   -0.6806   -4.6580 C.3     1  LIG1       -0.0197
     19 C           1.3254   -2.2282   -4.6717 C.3     1  LIG1        0.0389
     20 H           0.3498   -2.6640   -4.9041 H       1  LIG1        0.0395
     21 C           1.8379   -2.8262   -3.3401 C.3     1  LIG1       -0.0262
     22 C           3.3465   -2.7834   -3.4908 C.3     1  LIG1        0.0123
     23 N           3.5186   -3.0430   -4.8878 N.am    1  LIG1       -0.3151
     24 C           2.3888   -2.7387   -5.6263 C.2     1  LIG1        0.2162
     25 O           2.2925   -2.8187   -6.8306 O.2     1  LIG1       -0.2755
     26 N          -0.3558    4.6963   -5.0064 N.ar    1  LIG1       -0.3018
     27 C          -0.7064    5.2598   -3.7888 C.ar    1  LIG1        0.0089
     28 C          -1.7112    6.1362   -3.6816 C.ar    1  LIG1       -0.0435
     29 C          -2.4838    6.5219   -4.8379 C.ar    1  LIG1       -0.0338
     30 C          -2.2494    5.9903   -6.0455 C.ar    1  LIG1        0.0991
     31 N          -2.8939    6.3208   -7.2326 N.am    1  LIG1       -0.2758
     32 C          -4.0507    7.1015   -7.4236 C.2     1  LIG1        0.2700
     33 O          -4.7412    7.5599   -6.5326 O.2     1  LIG1       -0.2681
     34 C          -4.4044    7.2521   -8.8586 C.ar    1  LIG1        0.1681
     35 C          -5.7005    7.4520   -9.4333 C.ar    1  LIG1        0.0125
     36 C          -5.4772    7.5419  -10.7893 C.ar    1  LIG1        0.1350
     37 C          -6.3275    7.7098  -11.9891 C.3     1  LIG1       -0.0037
     38 O          -4.1420    7.4295  -11.0189 O.2     1  LIG1       -0.3592
     39 N          -3.4739    7.2295   -9.8249 N.ar    1  LIG1       -0.0734
     40 C          -1.1350    4.9345   -6.1526 C.ar    1  LIG1        0.2733
     41 O          -0.9430    4.3646   -7.2278 O.2     1  LIG1       -0.2656
     42 H           3.2491    6.0059   -3.6156 H       1  LIG1        0.0231
     43 H           1.6138    6.4500   -4.0711 H       1  LIG1        0.0231
     44 H           2.7892    6.0380   -5.3285 H       1  LIG1        0.0231
     45 H           1.8460    4.0692   -3.1799 H       1  LIG1        0.0287
     46 H           2.9491    3.7119   -4.4792 H       1  LIG1        0.0287
     47 H           0.9722    1.9269   -6.8478 H       1  LIG1        0.1493
     48 H          -0.9622   -1.2947   -6.0567 H       1  LIG1        0.0593
     49 H          -1.2591    1.5535   -7.1969 H       1  LIG1        0.0686
     50 H          -4.8824   -1.0342   -8.1329 H       1  LIG1        0.0728
     51 H          -3.0370   -3.4318   -8.6433 H       1  LIG1        0.0265
     52 H          -3.3980   -2.1375   -9.7712 H       1  LIG1        0.0265
     53 H          -4.6881   -3.2673   -9.2943 H       1  LIG1        0.0265
     54 H          -4.1044   -3.3742   -6.3030 H       1  LIG1        0.0265
     55 H          -5.7413   -2.9727   -6.8742 H       1  LIG1        0.0265
     56 H          -4.8789   -1.8996   -5.7447 H       1  LIG1        0.0265
     57 H           0.7079   -0.3783   -3.7960 H       1  LIG1        0.0293
     58 H           2.3282   -0.3123   -4.4819 H       1  LIG1        0.0293
     59 H           1.5216   -3.8778   -3.2717 H       1  LIG1        0.0288
     60 H           1.4780   -2.3155   -2.4428 H       1  LIG1        0.0288
     61 H           3.8675   -3.5353   -2.8926 H       1  LIG1        0.0462
     62 H           3.7531   -1.7916   -3.2704 H       1  LIG1        0.0462
     63 H           4.3821   -3.3124   -5.3428 H       1  LIG1        0.1487
     64 H          -0.1124    5.0051   -2.9165 H       1  LIG1        0.0810
     65 H          -1.9329    6.6071   -2.7281 H       1  LIG1        0.0633
     66 H          -3.2321    7.2925   -4.6760 H       1  LIG1        0.0638
     67 H          -2.4955    5.9135   -8.0665 H       1  LIG1        0.1553
     68 H          -6.6540    7.4915   -8.9271 H       1  LIG1        0.0676
     69 H          -7.3712    7.9082  -11.7256 H       1  LIG1        0.0309
     70 H          -6.3033    6.8052  -12.6070 H       1  LIG1        0.0309
     71 H          -5.9730    8.5433  -12.6056 H       1  LIG1        0.0309
@<TRIPOS>BOND
     1     1     2    1
     2     2     3    1
     3     3     4    1
     4     3     5    1
     5     5     6    2
     6     5     7   am
     7     8    10    1
     8    10    11    2
     9    11    12    1
    10    12    13    2
    11    12    14    1
    12    14    15    1
    13    15    16    1
    14    15    17    1
    15     8    18    1
    16    19    21    1
    17    21    22    1
    18    22    23    1
    19    23    24   am
    20    19    24    1
    21    24    25    2
    22     3    26    1
    23    26    27   ar
    24    27    28   ar
    25    28    29   ar
    26    29    30   ar
    27    30    31    1
    28    31    32   am
    29    32    33    2
    30    32    34    1
    31    34    35   ar
    32    35    36   ar
    33    36    37    1
    34    36    38   ar
    35    38    39   ar
    36    34    39   ar
    37    30    40   ar
    38    26    40   ar
    39    40    41    2
    40    19    20    1
    41    19    18    1
    42     8     9    1
    43     8     7    1
    44     1    42    1
    45     1    43    1
    46     1    44    1
    47     2    45    1
    48     2    46    1
    49     7    47    1
    50    10    48    1
    51    11    49    1
    52    15    50    1
    53    16    51    1
    54    16    52    1
    55    16    53    1
    56    17    54    1
    57    17    55    1
    58    17    56    1
    59    18    57    1
    60    18    58    1
    61    21    59    1
    62    21    60    1
    63    22    61    1
    64    22    62    1
    65    23    63    1
    66    27    64    1
    67    28    65    1
    68    29    66    1
    69    31    67    1
    70    35    68    1
    71    37    69    1
    72    37    70    1
    73    37    71    1
@<TRIPOS>MOLECULE
*****
 74 76 0 0 0
SMALL
GASTEIGER

@<TRIPOS>ATOM
      1 C          -3.6741   -3.7956   -6.6087 C.3     1  LIG1       -0.0629
      2 C          -2.1874   -3.5088   -6.4406 C.3     1  LIG1       -0.0263
      3 C          -1.3268   -4.6607   -5.8679 C.3     1  LIG1        0.1129
      4 H          -0.3410   -4.2129   -5.6776 H       1  LIG1        0.0625
      5 C          -1.7995   -5.1043   -4.4355 C.2     1  LIG1        0.2364
      6 O          -2.2448   -6.2194   -4.1778 O.2     1  LIG1       -0.2735
      7 N          -1.6896   -4.1297   -3.4520 N.am    1  LIG1       -0.3073
      8 C          -2.1564   -4.3437   -2.0796 C.3     1  LIG1        0.0427
      9 H          -2.0749   -5.4142   -1.8557 H       1  LIG1        0.0543
     10 C          -3.5897   -3.9090   -2.0300 C.2     1  LIG1       -0.0572
     11 C          -4.6306   -4.7565   -1.7947 C.2     1  LIG1        0.0203
     12 C          -5.9993   -4.2569   -1.6284 C.2     1  LIG1        0.3322
     13 O          -6.3219   -3.0616   -1.4856 O.2     1  LIG1       -0.2456
     14 O          -6.8036   -5.3480   -1.5445 O.3     1  LIG1       -0.4558
     15 C          -8.1181   -5.2599   -0.9157 C.3     1  LIG1        0.1055
     16 C          -9.1415   -4.5282   -1.7890 C.3     1  LIG1       -0.0254
     17 C          -8.5738   -6.7111   -0.7088 C.3     1  LIG1       -0.0254
     18 C          -7.9827   -4.6042    0.4687 C.3     1  LIG1       -0.0254
     19 C          -1.2569   -3.5551   -1.0909 C.3     1  LIG1       -0.0197
     20 C          -1.6424   -3.6461    0.3979 C.3     1  LIG1        0.0389
     21 H          -2.6689   -3.3086    0.5737 H       1  LIG1        0.0395
     22 C          -0.6834   -2.8461    1.3087 C.3     1  LIG1       -0.0262
     23 C           0.4130   -3.8358    1.6583 C.3     1  LIG1        0.0123
     24 N          -0.2855   -5.0814    1.6824 N.am    1  LIG1       -0.3151
     25 C          -1.4548   -5.0533    0.9393 C.2     1  LIG1        0.2162
     26 O          -2.1741   -6.0023    0.7422 O.2     1  LIG1       -0.2755
     27 N          -1.0662   -5.7471   -6.8587 N.ar    1  LIG1       -0.3018
     28 C          -1.9587   -6.8015   -6.9811 C.ar    1  LIG1        0.0089
     29 C          -1.7282   -7.8288   -7.8018 C.ar    1  LIG1       -0.0435
     30 C          -0.5246   -7.8808   -8.5777 C.ar    1  LIG1       -0.0338
     31 C           0.3716   -6.8835   -8.5667 C.ar    1  LIG1        0.0991
     32 N           1.5444   -6.9040   -9.3095 N.am    1  LIG1       -0.2758
     33 C           1.7202   -7.6126  -10.4966 C.2     1  LIG1        0.2700
     34 O           0.8556   -8.2878  -11.0430 O.2     1  LIG1       -0.2681
     35 C           3.0410   -7.4925  -11.1121 C.ar    1  LIG1        0.1681
     36 C           3.6317   -8.4297  -12.0008 C.ar    1  LIG1        0.0125
     37 C           4.7961   -7.8329  -12.4061 C.ar    1  LIG1        0.1350
     38 C           5.8659   -8.2113  -13.3456 C.3     1  LIG1       -0.0037
     39 O           4.9254   -6.6337  -11.7765 O.2     1  LIG1       -0.3592
     40 N           3.8370   -6.4255  -10.9398 N.ar    1  LIG1       -0.0734
     41 C           0.0866   -5.6798   -7.6702 C.ar    1  LIG1        0.2733
     42 O           0.8551   -4.7152   -7.6938 O.2     1  LIG1       -0.2656
     43 H          -4.1570   -2.9432   -7.1021 H       1  LIG1        0.0231
     44 H          -4.1687   -3.9288   -5.6415 H       1  LIG1        0.0231
     45 H          -3.8573   -4.6789   -7.2243 H       1  LIG1        0.0231
     46 H          -2.1036   -2.6374   -5.7791 H       1  LIG1        0.0287
     47 H          -1.7818   -3.1958   -7.4106 H       1  LIG1        0.0287
     48 H          -1.3879   -3.2013   -3.7134 H       1  LIG1        0.1493
     49 H          -3.8126   -2.8552   -2.1863 H       1  LIG1        0.0593
     50 H          -4.4463   -5.8235   -1.6436 H       1  LIG1        0.0686
     51 H          -9.2624   -5.0264   -2.7578 H       1  LIG1        0.0268
     52 H          -8.8368   -3.4994   -2.0028 H       1  LIG1        0.0268
     53 H         -10.1233   -4.4947   -1.3013 H       1  LIG1        0.0268
     54 H          -8.8116   -7.1936   -1.6645 H       1  LIG1        0.0268
     55 H          -9.4598   -6.7725   -0.0682 H       1  LIG1        0.0268
     56 H          -7.7742   -7.3066   -0.2515 H       1  LIG1        0.0268
     57 H          -7.8313   -3.5228    0.3922 H       1  LIG1        0.0268
     58 H          -7.1165   -5.0129    1.0010 H       1  LIG1        0.0268
     59 H          -8.8775   -4.7589    1.0786 H       1  LIG1        0.0268
     60 H          -1.2506   -2.4953   -1.3802 H       1  LIG1        0.0293
     61 H          -0.2257   -3.9089   -1.2253 H       1  LIG1        0.0293
     62 H          -1.2144   -2.5689    2.2307 H       1  LIG1        0.0288
     63 H          -0.2979   -1.9245    0.8638 H       1  LIG1        0.0288
     64 H           0.8768   -3.6394    2.6288 H       1  LIG1        0.0462
     65 H           1.1849   -3.8929    0.8845 H       1  LIG1        0.0462
     66 H           0.0564   -5.9480    2.0805 H       1  LIG1        0.1487
     67 H          -2.8592   -6.7850   -6.3755 H       1  LIG1        0.0810
     68 H          -2.4201   -8.6610   -7.8785 H       1  LIG1        0.0633
     69 H          -0.3614   -8.7972   -9.1353 H       1  LIG1        0.0638
     70 H           2.2684   -6.2159   -9.0635 H       1  LIG1        0.1553
     71 H           3.2345   -9.3868  -12.3085 H       1  LIG1        0.0676
     72 H           5.5690   -9.0756  -13.9493 H       1  LIG1        0.0309
     73 H           6.7790   -8.4721  -12.8029 H       1  LIG1        0.0309
     74 H           6.0891   -7.3858  -14.0281 H       1  LIG1        0.0309
@<TRIPOS>BOND
     1     1     2    1
     2     2     3    1
     3     3     4    1
     4     3     5    1
     5     5     6    2
     6     5     7   am
     7     8    10    1
     8    10    11    2
     9    11    12    1
    10    12    13    2
    11    12    14    1
    12    14    15    1
    13    15    16    1
    14    15    17    1
    15    15    18    1
    16     8    19    1
    17    20    22    1
    18    22    23    1
    19    23    24    1
    20    24    25   am
    21    20    25    1
    22    25    26    2
    23     3    27    1
    24    27    28   ar
    25    28    29   ar
    26    29    30   ar
    27    30    31   ar
    28    31    32    1
    29    32    33   am
    30    33    34    2
    31    33    35    1
    32    35    36   ar
    33    36    37   ar
    34    37    38    1
    35    37    39   ar
    36    39    40   ar
    37    35    40   ar
    38    31    41   ar
    39    27    41   ar
    40    41    42    2
    41     8     9    1
    42     8     7    1
    43    20    21    1
    44    20    19    1
    45     1    43    1
    46     1    44    1
    47     1    45    1
    48     2    46    1
    49     2    47    1
    50     7    48    1
    51    10    49    1
    52    11    50    1
    53    16    51    1
    54    16    52    1
    55    16    53    1
    56    17    54    1
    57    17    55    1
    58    17    56    1
    59    18    57    1
    60    18    58    1
    61    18    59    1
    62    19    60    1
    63    19    61    1
    64    22    62    1
    65    22    63    1
    66    23    64    1
    67    23    65    1
    68    24    66    1
    69    28    67    1
    70    29    68    1
    71    30    69    1
    72    32    70    1
    73    36    71    1
    74    38    72    1
    75    38    73    1
    76    38    74    1
@<TRIPOS>MOLECULE
*****
 68 70 0 0 0
SMALL
GASTEIGER

@<TRIPOS>ATOM
      1 C           8.1060   -5.1164  -17.4630 C.3     1  LIG1       -0.0306
      2 C           7.5392   -5.2961  -16.0700 C.3     1  LIG1        0.0900
      3 O           7.0179   -4.0815  -15.5130 O.3     1  LIG1       -0.4618
      4 C           5.6858   -4.1380  -15.2592 C.2     1  LIG1        0.3317
      5 O           4.8243   -4.6172  -16.0054 O.2     1  LIG1       -0.2456
      6 C           5.4814   -3.7453  -13.8518 C.2     1  LIG1        0.0203
      7 C           4.4464   -4.2650  -13.1594 C.2     1  LIG1       -0.0572
      8 C           4.1961   -4.0517  -11.6888 C.3     1  LIG1        0.0427
      9 H           5.1420   -3.8348  -11.1748 H       1  LIG1        0.0543
     10 C           3.5318   -5.2781  -11.0249 C.3     1  LIG1       -0.0197
     11 C           4.3514   -6.5808  -11.0894 C.3     1  LIG1        0.0389
     12 H           4.6269   -6.8487  -12.1161 H       1  LIG1        0.0395
     13 C           3.6015   -7.7575  -10.4361 C.3     1  LIG1       -0.0262
     14 C           3.9500   -7.6464   -8.9637 C.3     1  LIG1        0.0123
     15 N           5.2585   -7.0550   -8.9866 N.am    1  LIG1       -0.3151
     16 C           5.5716   -6.5144  -10.2093 C.2     1  LIG1        0.2162
     17 O           6.6661   -6.0351  -10.5185 O.2     1  LIG1       -0.2755
     18 N           3.3281   -2.8795  -11.5760 N.am    1  LIG1       -0.3073
     19 C           3.3892   -2.0104  -10.5022 C.2     1  LIG1        0.2364
     20 O           4.1428   -2.2358   -9.5561 O.2     1  LIG1       -0.2735
     21 C           2.6341   -0.6513  -10.6740 C.3     1  LIG1        0.1129
     22 H           3.1814   -0.1410  -11.4804 H       1  LIG1        0.0625
     23 C           2.7339    0.2949   -9.4362 C.3     1  LIG1       -0.0263
     24 C           4.1189    0.5764   -8.8676 C.3     1  LIG1       -0.0629
     25 N           1.2145   -0.7944  -11.1553 N.ar    1  LIG1       -0.3018
     26 C           0.1777   -0.8498  -10.2331 C.ar    1  LIG1        0.0089
     27 C          -1.1035   -0.8337  -10.6065 C.ar    1  LIG1       -0.0435
     28 C          -1.4556   -0.7583  -11.9947 C.ar    1  LIG1       -0.0338
     29 C          -0.5256   -0.7308  -12.9599 C.ar    1  LIG1        0.0991
     30 N          -0.7877   -0.6202  -14.3161 N.am    1  LIG1       -0.2758
     31 C          -2.0227   -0.4023  -14.9233 C.2     1  LIG1        0.2700
     32 O          -3.0941   -0.3153  -14.3377 O.2     1  LIG1       -0.2681
     33 C          -1.9493   -0.1782  -16.3739 C.ar    1  LIG1        0.1681
     34 C          -2.8884    0.5496  -17.1539 C.ar    1  LIG1        0.0125
     35 C          -2.3146    0.6240  -18.3974 C.ar    1  LIG1        0.1350
     36 C          -2.6370    1.3660  -19.6298 C.3     1  LIG1       -0.0037
     37 O          -1.1710   -0.1118  -18.4044 O.2     1  LIG1       -0.3592
     38 N          -0.9267   -0.6029  -17.1299 N.ar    1  LIG1       -0.0734
     39 C           0.9416   -0.8083  -12.5343 C.ar    1  LIG1        0.2733
     40 O           1.8161   -0.8865  -13.3963 O.2     1  LIG1       -0.2656
     41 H           8.4992   -6.0720  -17.8273 H       1  LIG1        0.0262
     42 H           8.9218   -4.3869  -17.4664 H       1  LIG1        0.0262
     43 H           7.3434   -4.7637  -18.1632 H       1  LIG1        0.0262
     44 H           8.3419   -5.6137  -15.3974 H       1  LIG1        0.0695
     45 H           6.7889   -6.0966  -16.0697 H       1  LIG1        0.0695
     46 H           6.2267   -3.1074  -13.3879 H       1  LIG1        0.0686
     47 H           3.7677   -4.9418  -13.6769 H       1  LIG1        0.0593
     48 H           2.5604   -5.4545  -11.5050 H       1  LIG1        0.0293
     49 H           3.3088   -5.0284   -9.9792 H       1  LIG1        0.0293
     50 H           4.0034   -8.7011  -10.8292 H       1  LIG1        0.0288
     51 H           2.5224   -7.7570  -10.6207 H       1  LIG1        0.0288
     52 H           3.9983   -8.6199   -8.4677 H       1  LIG1        0.0462
     53 H           3.2659   -6.9896   -8.4183 H       1  LIG1        0.0462
     54 H           5.9338   -7.0907   -8.2313 H       1  LIG1        0.1487
     55 H           2.6415   -2.7062  -12.3038 H       1  LIG1        0.1493
     56 H           2.1447   -0.0859   -8.5970 H       1  LIG1        0.0287
     57 H           2.2874    1.2587   -9.7175 H       1  LIG1        0.0287
     58 H           4.4581   -0.2472   -8.2312 H       1  LIG1        0.0231
     59 H           4.0745    1.4585   -8.2174 H       1  LIG1        0.0231
     60 H           4.8611    0.7588   -9.6470 H       1  LIG1        0.0231
     61 H           0.4149   -0.8846   -9.1766 H       1  LIG1        0.0810
     62 H          -1.9030   -0.8410   -9.8720 H       1  LIG1        0.0633
     63 H          -2.5193   -0.7141  -12.2007 H       1  LIG1        0.0638
     64 H           0.0272   -0.6084  -14.9273 H       1  LIG1        0.1553
     65 H          -3.7929    1.0324  -16.8152 H       1  LIG1        0.0676
     66 H          -3.6355    1.8113  -19.5723 H       1  LIG1        0.0309
     67 H          -2.5973    0.7201  -20.5109 H       1  LIG1        0.0309
     68 H          -1.9174    2.1807  -19.7659 H       1  LIG1        0.0309
@<TRIPOS>BOND
     1     1     2    1
     2     2     3    1
     3     3     4    1
     4     4     5    2
     5     4     6    1
     6     6     7    2
     7     8    10    1
     8    11    13    1
     9    13    14    1
    10    14    15    1
    11    15    16   am
    12    11    16    1
    13    16    17    2
    14     8    18    1
    15    18    19   am
    16    19    20    2
    17    21    23    1
    18    23    24    1
    19    21    25    1
    20    25    26   ar
    21    26    27   ar
    22    27    28   ar
    23    28    29   ar
    24    29    30    1
    25    30    31   am
    26    31    32    2
    27    31    33    1
    28    33    34   ar
    29    34    35   ar
    30    35    36    1
    31    35    37   ar
    32    37    38   ar
    33    33    38   ar
    34    29    39   ar
    35    25    39   ar
    36    39    40    2
    37    11    12    1
    38    11    10    1
    39     8     9    1
    40     8     7    1
    41    21    22    1
    42    21    19    1
    43     1    41    1
    44     1    42    1
    45     1    43    1
    46     2    44    1
    47     2    45    1
    48     6    46    1
    49     7    47    1
    50    10    48    1
    51    10    49    1
    52    13    50    1
    53    13    51    1
    54    14    52    1
    55    14    53    1
    56    15    54    1
    57    18    55    1
    58    23    56    1
    59    23    57    1
    60    24    58    1
    61    24    59    1
    62    24    60    1
    63    26    61    1
    64    27    62    1
    65    28    63    1
    66    30    64    1
    67    34    65    1
    68    36    66    1
    69    36    67    1
    70    36    68    1
@<TRIPOS>MOLECULE
*****
 77 79 0 0 0
SMALL
GASTEIGER

@<TRIPOS>ATOM
      1 C          -0.8141   -0.3245   -0.7728 C.3     1  LIG1       -0.0629
      2 C          -2.0659    0.1416   -1.5056 C.3     1  LIG1       -0.0263
      3 C          -1.9129    0.1798   -3.0455 C.3     1  LIG1        0.1129
      4 H          -1.0552    0.8252   -3.2760 H       1  LIG1        0.0625
      5 C          -1.6169   -1.2211   -3.6276 C.2     1  LIG1        0.2364
      6 O          -2.0562   -2.2525   -3.1203 O.2     1  LIG1       -0.2735
      7 N          -0.8826   -1.2289   -4.7987 N.am    1  LIG1       -0.3073
      8 C          -0.4636   -2.4705   -5.4310 C.3     1  LIG1        0.0427
      9 H          -0.7350   -3.2967   -4.7670 H       1  LIG1        0.0543
     10 C           1.0213   -2.3903   -5.5707 C.2     1  LIG1       -0.0572
     11 C           1.9073   -2.8191   -4.6454 C.2     1  LIG1        0.0203
     12 C           3.3680   -2.8597   -4.8643 C.2     1  LIG1        0.3317
     13 O           4.1453   -3.2220   -3.9984 O.2     1  LIG1       -0.2456
     14 O           3.6808   -2.4389   -6.1115 O.3     1  LIG1       -0.4610
     15 C           5.0656   -2.2209   -6.4223 C.3     1  LIG1        0.0976
     16 C           5.7498   -3.4331   -7.0953 C.3     1  LIG1       -0.0035
     17 C           7.1737   -3.0183   -7.5083 C.3     1  LIG1       -0.0570
     18 C           5.8589   -4.6263   -6.1348 C.3     1  LIG1       -0.0570
     19 C           4.9594   -3.8772   -8.3369 C.3     1  LIG1       -0.0570
     20 C          -1.1900   -2.6770   -6.7821 C.3     1  LIG1       -0.0197
     21 C          -0.9710   -4.0021   -7.5451 C.3     1  LIG1        0.0389
     22 H          -1.5141   -3.9534   -8.4968 H       1  LIG1        0.0395
     23 C          -1.3909   -5.2762   -6.8002 C.3     1  LIG1       -0.0262
     24 C          -0.1290   -5.7428   -6.1016 C.3     1  LIG1        0.0123
     25 N           0.9105   -5.2761   -6.9680 N.am    1  LIG1       -0.3151
     26 C           0.4845   -4.2899   -7.8334 C.2     1  LIG1        0.2162
     27 O           1.1883   -3.7096   -8.6465 O.2     1  LIG1       -0.2755
     28 N          -3.1300    0.7339   -3.6920 N.ar    1  LIG1       -0.3018
     29 C          -4.3469    0.0989   -3.4810 C.ar    1  LIG1        0.0089
     30 C          -5.4851    0.5805   -3.9813 C.ar    1  LIG1       -0.0435
     31 C          -5.4808    1.7971   -4.7460 C.ar    1  LIG1       -0.0338
     32 C          -4.3481    2.4572   -5.0226 C.ar    1  LIG1        0.0991
     33 N          -4.2629    3.6350   -5.7400 N.am    1  LIG1       -0.2758
     34 C          -5.3180    4.3822   -6.2661 C.2     1  LIG1        0.2700
     35 O          -6.5025    4.0935   -6.1238 O.2     1  LIG1       -0.2681
     36 C          -4.9124    5.5664   -7.0305 C.ar    1  LIG1        0.1681
     37 C          -3.7548    6.3769   -6.8928 C.ar    1  LIG1        0.0125
     38 C          -3.8699    7.3184   -7.8853 C.ar    1  LIG1        0.1350
     39 C          -3.0240    8.4320   -8.3467 C.3     1  LIG1       -0.0037
     40 O          -5.0294    7.1174   -8.5597 O.2     1  LIG1       -0.3592
     41 N          -5.6911    6.0344   -8.0225 N.ar    1  LIG1       -0.0734
     42 C          -3.0350    1.8731   -4.5027 C.ar    1  LIG1        0.2733
     43 O          -1.9786    2.4306   -4.7954 O.2     1  LIG1       -0.2656
     44 H          -0.9531   -0.2128    0.3082 H       1  LIG1        0.0231
     45 H           0.0617    0.2613   -1.0651 H       1  LIG1        0.0231
     46 H          -0.6072   -1.3816   -0.9667 H       1  LIG1        0.0231
     47 H          -2.3246    1.1467   -1.1499 H       1  LIG1        0.0287
     48 H          -2.8914   -0.5142   -1.2049 H       1  LIG1        0.0287
     49 H          -0.5861   -0.3483   -5.2049 H       1  LIG1        0.1493
     50 H           1.3977   -2.0373   -6.5288 H       1  LIG1        0.0593
     51 H           1.5819   -3.1778   -3.6714 H       1  LIG1        0.0686
     52 H           5.6140   -1.8832   -5.5349 H       1  LIG1        0.0703
     53 H           5.0708   -1.3746   -7.1216 H       1  LIG1        0.0703
     54 H           7.7908   -2.8079   -6.6268 H       1  LIG1        0.0236
     55 H           7.1653   -2.1170   -8.1311 H       1  LIG1        0.0236
     56 H           7.6702   -3.8123   -8.0771 H       1  LIG1        0.0236
     57 H           6.3958   -4.3466   -5.2214 H       1  LIG1        0.0236
     58 H           6.4070   -5.4542   -6.5988 H       1  LIG1        0.0236
     59 H           4.8747   -5.0108   -5.8504 H       1  LIG1        0.0236
     60 H           4.8052   -3.0447   -9.0317 H       1  LIG1        0.0236
     61 H           3.9756   -4.2731   -8.0621 H       1  LIG1        0.0236
     62 H           5.4896   -4.6691   -8.8786 H       1  LIG1        0.0236
     63 H          -0.9128   -1.8513   -7.4532 H       1  LIG1        0.0293
     64 H          -2.2706   -2.5676   -6.6132 H       1  LIG1        0.0293
     65 H          -1.6731   -6.0368   -7.5431 H       1  LIG1        0.0288
     66 H          -2.2441   -5.1423   -6.1303 H       1  LIG1        0.0288
     67 H          -0.0702   -6.8286   -6.0003 H       1  LIG1        0.0462
     68 H          -0.0055   -5.2913   -5.1143 H       1  LIG1        0.0462
     69 H           1.8888   -5.5368   -6.9158 H       1  LIG1        0.1487
     70 H          -4.3514   -0.8138   -2.8898 H       1  LIG1        0.0810
     71 H          -6.4335    0.0821   -3.8122 H       1  LIG1        0.0633
     72 H          -6.4565    2.1334   -5.0765 H       1  LIG1        0.0638
     73 H          -3.3084    3.9464   -5.9214 H       1  LIG1        0.1553
     74 H          -2.9548    6.2922   -6.1731 H       1  LIG1        0.0676
     75 H          -2.1371    8.0403   -8.8539 H       1  LIG1        0.0309
     76 H          -2.6969    9.0437   -7.5010 H       1  LIG1        0.0309
     77 H          -3.5599    9.0786   -9.0485 H       1  LIG1        0.0309
@<TRIPOS>BOND
     1     1     2    1
     2     2     3    1
     3     3     4    1
     4     3     5    1
     5     5     6    2
     6     5     7   am
     7     8    10    1
     8    10    11    2
     9    11    12    1
    10    12    13    2
    11    12    14    1
    12    14    15    1
    13    15    16    1
    14    16    17    1
    15    16    18    1
    16    16    19    1
    17     8    20    1
    18    21    23    1
    19    23    24    1
    20    24    25    1
    21    25    26   am
    22    21    26    1
    23    26    27    2
    24     3    28    1
    25    28    29   ar
    26    29    30   ar
    27    30    31   ar
    28    31    32   ar
    29    32    33    1
    30    33    34   am
    31    34    35    2
    32    34    36    1
    33    36    37   ar
    34    37    38   ar
    35    38    39    1
    36    38    40   ar
    37    40    41   ar
    38    36    41   ar
    39    32    42   ar
    40    28    42   ar
    41    42    43    2
    42     8     9    1
    43     8     7    1
    44    21    22    1
    45    21    20    1
    46     1    44    1
    47     1    45    1
    48     1    46    1
    49     2    47    1
    50     2    48    1
    51     7    49    1
    52    10    50    1
    53    11    51    1
    54    15    52    1
    55    15    53    1
    56    17    54    1
    57    17    55    1
    58    17    56    1
    59    18    57    1
    60    18    58    1
    61    18    59    1
    62    19    60    1
    63    19    61    1
    64    19    62    1
    65    20    63    1
    66    20    64    1
    67    23    65    1
    68    23    66    1
    69    24    67    1
    70    24    68    1
    71    25    69    1
    72    29    70    1
    73    30    71    1
    74    31    72    1
    75    33    73    1
    76    37    74    1
    77    39    75    1
    78    39    76    1
    79    39    77    1
@<TRIPOS>MOLECULE
*****
 67 69 0 0 0
SMALL
GASTEIGER

@<TRIPOS>ATOM
      1 C           6.7821   -2.1817   -6.5132 C.1     1  LIG1       -0.1191
      2 C           5.8683   -2.5811   -5.8276 C.1     1  LIG1       -0.1030
      3 C           4.7377   -3.0963   -5.0363 C.3     1  LIG1        0.0383
      4 C           3.4861   -2.2123   -5.1185 C.3     1  LIG1        0.1239
      5 H           3.7847   -1.1697   -4.9518 H       1  LIG1        0.0634
      6 C           2.8851   -2.2135   -6.5530 C.2     1  LIG1        0.2374
      7 O           3.5165   -1.8502   -7.5421 O.2     1  LIG1       -0.2735
      8 N           1.6079   -2.7070   -6.6573 N.am    1  LIG1       -0.3073
      9 C           0.8966   -2.9394   -7.8916 C.3     1  LIG1        0.0427
     10 H           1.1341   -2.1537   -8.6162 H       1  LIG1        0.0543
     11 C          -0.5767   -2.8585   -7.5259 C.2     1  LIG1       -0.0572
     12 C          -1.1509   -1.8096   -6.9101 C.2     1  LIG1        0.0203
     13 C          -2.6059   -1.7904   -6.6353 C.2     1  LIG1        0.3317
     14 O          -3.4372   -2.4310   -7.2540 O.2     1  LIG1       -0.2456
     15 O          -2.8355   -0.8692   -5.6681 O.3     1  LIG1       -0.4618
     16 C          -4.1768   -0.3591   -5.6165 C.3     1  LIG1        0.0900
     17 C          -4.2422    0.8219   -6.5684 C.3     1  LIG1       -0.0306
     18 C           1.2377   -4.3218   -8.4851 C.3     1  LIG1       -0.0197
     19 C           2.6895   -4.5709   -8.9549 C.3     1  LIG1        0.0389
     20 H           3.3805   -4.6563   -8.1104 H       1  LIG1        0.0395
     21 C           3.2598   -3.6323  -10.0301 C.3     1  LIG1       -0.0262
     22 C           2.6016   -4.1172  -11.3041 C.3     1  LIG1        0.0123
     23 N           2.5458   -5.5328  -11.0915 N.am    1  LIG1       -0.3151
     24 C           2.6831   -5.8643   -9.7538 C.2     1  LIG1        0.2162
     25 O           2.7200   -6.9956   -9.3046 O.2     1  LIG1       -0.2755
     26 N           2.4812   -2.5796   -4.0692 N.ar    1  LIG1       -0.3009
     27 C           1.9809   -3.8768   -4.0019 C.ar    1  LIG1        0.0089
     28 C           1.0364   -4.2137   -3.1212 C.ar    1  LIG1       -0.0435
     29 C           0.5689   -3.2551   -2.1584 C.ar    1  LIG1       -0.0338
     30 C           1.0125   -1.9903   -2.1447 C.ar    1  LIG1        0.0991
     31 N           0.6238   -1.0131   -1.2468 N.am    1  LIG1       -0.2758
     32 C          -0.2540   -1.1282   -0.1832 C.2     1  LIG1        0.2700
     33 O          -0.8562   -2.1507    0.1314 O.2     1  LIG1       -0.2681
     34 C          -0.4239    0.1052    0.5886 C.ar    1  LIG1        0.1681
     35 C          -1.2456    0.2888    1.7313 C.ar    1  LIG1        0.0125
     36 C          -1.0457    1.5953    2.0942 C.ar    1  LIG1        0.1350
     37 C          -1.5598    2.4509    3.1779 C.3     1  LIG1       -0.0037
     38 O          -0.1749    2.1724    1.2238 O.2     1  LIG1       -0.3592
     39 N           0.2201    1.2428    0.2768 N.ar    1  LIG1       -0.0734
     40 C           2.0331   -1.5791   -3.1934 C.ar    1  LIG1        0.2733
     41 O           2.4176   -0.4101   -3.2255 O.2     1  LIG1       -0.2656
     42 H           7.5928   -1.8576   -7.1185 H       1  LIG1        0.1228
     43 H           5.0547   -3.1784   -3.9896 H       1  LIG1        0.0422
     44 H           4.5212   -4.1139   -5.3740 H       1  LIG1        0.0422
     45 H           1.0927   -2.8345   -5.7985 H       1  LIG1        0.1493
     46 H          -1.2016   -3.7171   -7.7750 H       1  LIG1        0.0593
     47 H          -0.5963   -0.9243   -6.6252 H       1  LIG1        0.0686
     48 H          -4.3728   -0.0283   -4.5908 H       1  LIG1        0.0695
     49 H          -4.9262   -1.1206   -5.8641 H       1  LIG1        0.0695
     50 H          -3.4470    1.5380   -6.3323 H       1  LIG1        0.0262
     51 H          -5.2073    1.3295   -6.5197 H       1  LIG1        0.0262
     52 H          -4.0673    0.4920   -7.5984 H       1  LIG1        0.0262
     53 H           0.5446   -4.5260   -9.3136 H       1  LIG1        0.0293
     54 H           1.0116   -5.0949   -7.7345 H       1  LIG1        0.0293
     55 H           4.3438   -3.8149  -10.1080 H       1  LIG1        0.0288
     56 H           3.1210   -2.5657   -9.8566 H       1  LIG1        0.0288
     57 H           3.1755   -3.8882  -12.2048 H       1  LIG1        0.0462
     58 H           1.5820   -3.7317  -11.4039 H       1  LIG1        0.0462
     59 H           2.4975   -6.2426  -11.8117 H       1  LIG1        0.1487
     60 H           2.3237   -4.5957   -4.7426 H       1  LIG1        0.0810
     61 H           0.5990   -5.2077   -3.1117 H       1  LIG1        0.0633
     62 H          -0.1534   -3.6282   -1.4413 H       1  LIG1        0.0638
     63 H           1.0569   -0.0970   -1.3762 H       1  LIG1        0.1553
     64 H          -1.8799   -0.4420    2.2123 H       1  LIG1        0.0676
     65 H          -1.9665    1.8454    3.9941 H       1  LIG1        0.0309
     66 H          -2.3560    3.1019    2.8049 H       1  LIG1        0.0309
     67 H          -0.7631    3.0787    3.5886 H       1  LIG1        0.0309
@<TRIPOS>BOND
     1     1     2    3
     2     2     3    1
     3     3     4    1
     4     4     5    1
     5     4     6    1
     6     6     7    2
     7     6     8   am
     8     9    11    1
     9    11    12    2
    10    12    13    1
    11    13    14    2
    12    13    15    1
    13    15    16    1
    14    16    17    1
    15     9    18    1
    16    19    21    1
    17    21    22    1
    18    22    23    1
    19    23    24   am
    20    19    24    1
    21    24    25    2
    22     4    26    1
    23    26    27   ar
    24    27    28   ar
    25    28    29   ar
    26    29    30   ar
    27    30    31    1
    28    31    32   am
    29    32    33    2
    30    32    34    1
    31    34    35   ar
    32    35    36   ar
    33    36    37    1
    34    36    38   ar
    35    38    39   ar
    36    34    39   ar
    37    30    40   ar
    38    26    40   ar
    39    40    41    2
    40     9    10    1
    41     9     8    1
    42    19    20    1
    43    19    18    1
    44     1    42    1
    45     3    43    1
    46     3    44    1
    47     8    45    1
    48    11    46    1
    49    12    47    1
    50    16    48    1
    51    16    49    1
    52    17    50    1
    53    17    51    1
    54    17    52    1
    55    18    53    1
    56    18    54    1
    57    21    55    1
    58    21    56    1
    59    22    57    1
    60    22    58    1
    61    23    59    1
    62    27    60    1
    63    28    61    1
    64    29    62    1
    65    31    63    1
    66    35    64    1
    67    37    65    1
    68    37    66    1
    69    37    67    1
@<TRIPOS>MOLECULE
*****
 81 84 0 0 0
SMALL
GASTEIGER

@<TRIPOS>ATOM
      1 C          -2.4796    1.1101  -11.2959 C.3     1  LIG1       -0.0629
      2 C          -1.8982    0.6804   -9.9520 C.3     1  LIG1       -0.0263
      3 C          -1.1539    1.8177   -9.2199 C.3     1  LIG1        0.1129
      4 H          -1.8951    2.6002   -9.0127 H       1  LIG1        0.0625
      5 C          -0.6021    1.3087   -7.8731 C.2     1  LIG1        0.2364
      6 O           0.2262    0.4021   -7.8004 O.2     1  LIG1       -0.2735
      7 N          -1.1165    1.9677   -6.7632 N.am    1  LIG1       -0.3073
      8 C          -0.7223    1.6443   -5.3996 C.3     1  LIG1        0.0427
      9 H           0.3722    1.7129   -5.3550 H       1  LIG1        0.0543
     10 C          -1.1090    0.2225   -5.1633 C.2     1  LIG1       -0.0572
     11 C          -2.1800   -0.4199   -5.6437 C.2     1  LIG1        0.0203
     12 C          -2.3989   -1.8426   -5.3660 C.2     1  LIG1        0.3319
     13 O          -3.1144   -2.5621   -6.0616 O.2     1  LIG1       -0.2456
     14 O          -1.7572   -2.1844   -4.2389 O.3     1  LIG1       -0.4583
     15 C          -1.8625   -3.5475   -3.7938 C.3     1  LIG1        0.1034
     16 C          -0.8547   -4.3789   -4.5896 C.3     1  LIG1       -0.0157
     17 C          -0.6920   -5.8200   -4.1232 C.3     1  LIG1       -0.0497
     18 C           0.0770   -5.9195   -2.8105 C.3     1  LIG1       -0.0529
     19 C          -0.7790   -5.8101   -1.5510 C.3     1  LIG1       -0.0529
     20 C          -1.9513   -4.8357   -1.5964 C.3     1  LIG1       -0.0497
     21 C          -1.6302   -3.5129   -2.2780 C.3     1  LIG1       -0.0157
     22 C          -1.3424    2.6254   -4.3753 C.3     1  LIG1       -0.0197
     23 C          -1.0134    2.4009   -2.8793 C.3     1  LIG1        0.0389
     24 H           0.0526    2.5641   -2.6874 H       1  LIG1        0.0395
     25 C          -1.4695    1.0736   -2.2477 C.3     1  LIG1       -0.0262
     26 C          -2.9268    1.3023   -1.9198 C.3     1  LIG1        0.0123
     27 N          -2.9237    2.6721   -1.5174 N.am    1  LIG1       -0.3151
     28 C          -1.8383    3.3620   -2.0280 C.2     1  LIG1        0.2162
     29 O          -1.6201    4.5490   -1.8418 O.2     1  LIG1       -0.2755
     30 N          -0.0357    2.4359   -9.9533 N.ar    1  LIG1       -0.3018
     31 C           0.7259    1.7086  -10.8520 C.ar    1  LIG1        0.0089
     32 C           1.6984    2.2810  -11.5661 C.ar    1  LIG1       -0.0435
     33 C           2.0095    3.6741  -11.3855 C.ar    1  LIG1       -0.0338
     34 C           1.3751    4.4170  -10.4671 C.ar    1  LIG1        0.0991
     35 N           1.6131    5.7453  -10.1885 N.am    1  LIG1       -0.2758
     36 C           2.4527    6.6360  -10.8362 C.2     1  LIG1        0.2700
     37 O           3.1579    6.3803  -11.7986 O.2     1  LIG1       -0.2681
     38 C           2.3564    7.9939  -10.2875 C.ar    1  LIG1        0.1681
     39 C           2.6069    9.2177  -10.9645 C.ar    1  LIG1        0.0125
     40 C           2.3050   10.1871  -10.0405 C.ar    1  LIG1        0.1350
     41 C           2.2717   11.6601  -10.0657 C.3     1  LIG1       -0.0037
     42 O           1.9527    9.5940   -8.8700 O.2     1  LIG1       -0.3592
     43 N           1.9639    8.2205   -9.0250 N.ar    1  LIG1       -0.0734
     44 C           0.2692    3.7675   -9.6540 C.ar    1  LIG1        0.2733
     45 O          -0.3259    4.4343   -8.8053 O.2     1  LIG1       -0.2656
     46 H          -2.9364    0.2518  -11.7985 H       1  LIG1        0.0231
     47 H          -1.7183    1.5106  -11.9715 H       1  LIG1        0.0231
     48 H          -3.2471    1.8780  -11.1627 H       1  LIG1        0.0231
     49 H          -1.2469   -0.1894  -10.0984 H       1  LIG1        0.0287
     50 H          -2.7189    0.3208   -9.3182 H       1  LIG1        0.0287
     51 H          -1.8688    2.6303   -6.8954 H       1  LIG1        0.1493
     52 H          -0.3683   -0.3372   -4.5948 H       1  LIG1        0.0593
     53 H          -2.9216    0.0598   -6.2862 H       1  LIG1        0.0686
     54 H          -2.8828   -3.9032   -3.9853 H       1  LIG1        0.0734
     55 H           0.1209   -3.8734   -4.6068 H       1  LIG1        0.0301
     56 H          -1.1744   -4.3935   -5.6397 H       1  LIG1        0.0301
     57 H          -0.1174   -6.3489   -4.8935 H       1  LIG1        0.0266
     58 H          -1.6638   -6.3217   -4.0587 H       1  LIG1        0.0266
     59 H           0.8668   -5.1576   -2.7831 H       1  LIG1        0.0265
     60 H           0.5974   -6.8844   -2.7774 H       1  LIG1        0.0265
     61 H          -0.1190   -5.5295   -0.7201 H       1  LIG1        0.0265
     62 H          -1.1714   -6.8026   -1.2975 H       1  LIG1        0.0265
     63 H          -2.2600   -4.6377   -0.5619 H       1  LIG1        0.0266
     64 H          -2.8170   -5.3086   -2.0771 H       1  LIG1        0.0266
     65 H          -0.6106   -3.1838   -2.0379 H       1  LIG1        0.0301
     66 H          -2.2836   -2.7377   -1.8534 H       1  LIG1        0.0301
     67 H          -2.4314    2.6630   -4.5142 H       1  LIG1        0.0293
     68 H          -0.9993    3.6383   -4.6383 H       1  LIG1        0.0293
     69 H          -0.9050    0.9141   -1.3194 H       1  LIG1        0.0288
     70 H          -1.3275    0.1720   -2.8266 H       1  LIG1        0.0288
     71 H          -3.2861    0.6561   -1.1163 H       1  LIG1        0.0462
     72 H          -3.5744    1.2011   -2.7972 H       1  LIG1        0.0462
     73 H          -3.6157    3.1216   -0.9303 H       1  LIG1        0.1487
     74 H           0.5027    0.6557  -10.9852 H       1  LIG1        0.0810
     75 H           2.2687    1.7066  -12.2884 H       1  LIG1        0.0633
     76 H           2.7993    4.0707  -12.0133 H       1  LIG1        0.0638
     77 H           1.0535    6.1303   -9.4271 H       1  LIG1        0.1553
     78 H           2.9085    9.3593  -11.9918 H       1  LIG1        0.0676
     79 H           2.1432   12.0288  -11.0882 H       1  LIG1        0.0309
     80 H           3.2020   12.0717   -9.6647 H       1  LIG1        0.0309
     81 H           1.4385   12.0420   -9.4663 H       1  LIG1        0.0309
@<TRIPOS>BOND
     1     1     2    1
     2     2     3    1
     3     3     4    1
     4     3     5    1
     5     5     6    2
     6     5     7   am
     7     8    10    1
     8    10    11    2
     9    11    12    1
    10    12    13    2
    11    12    14    1
    12    14    15    1
    13    15    16    1
    14    16    17    1
    15    17    18    1
    16    18    19    1
    17    19    20    1
    18    20    21    1
    19    15    21    1
    20     8    22    1
    21    23    25    1
    22    25    26    1
    23    26    27    1
    24    27    28   am
    25    23    28    1
    26    28    29    2
    27     3    30    1
    28    30    31   ar
    29    31    32   ar
    30    32    33   ar
    31    33    34   ar
    32    34    35    1
    33    35    36   am
    34    36    37    2
    35    36    38    1
    36    38    39   ar
    37    39    40   ar
    38    40    41    1
    39    40    42   ar
    40    42    43   ar
    41    38    43   ar
    42    34    44   ar
    43    30    44   ar
    44    44    45    2
    45     8     9    1
    46     8     7    1
    47    23    24    1
    48    23    22    1
    49     1    46    1
    50     1    47    1
    51     1    48    1
    52     2    49    1
    53     2    50    1
    54     7    51    1
    55    10    52    1
    56    11    53    1
    57    15    54    1
    58    16    55    1
    59    16    56    1
    60    17    57    1
    61    17    58    1
    62    18    59    1
    63    18    60    1
    64    19    61    1
    65    19    62    1
    66    20    63    1
    67    20    64    1
    68    21    65    1
    69    21    66    1
    70    22    67    1
    71    22    68    1
    72    25    69    1
    73    25    70    1
    74    26    71    1
    75    26    72    1
    76    27    73    1
    77    31    74    1
    78    32    75    1
    79    33    76    1
    80    35    77    1
    81    39    78    1
    82    41    79    1
    83    41    80    1
    84    41    81    1
@<TRIPOS>MOLECULE
*****
 78 81 0 0 0
SMALL
GASTEIGER

@<TRIPOS>ATOM
      1 C          -5.1182    1.6440   -4.4625 C.3     1  LIG1       -0.0629
      2 C          -3.8190    0.8448   -4.4640 C.3     1  LIG1       -0.0263
      3 C          -3.7586   -0.1863   -3.3239 C.3     1  LIG1        0.1129
      4 H          -4.5569   -0.9162   -3.5073 H       1  LIG1        0.0625
      5 C          -2.4217   -0.9859   -3.3618 C.2     1  LIG1        0.2364
      6 O          -1.3959   -0.6062   -2.7976 O.2     1  LIG1       -0.2735
      7 N          -2.4373   -2.1402   -4.1277 N.am    1  LIG1       -0.3073
      8 C          -1.2445   -2.9591   -4.2939 C.3     1  LIG1        0.0427
      9 H          -0.6112   -2.8308   -3.4089 H       1  LIG1        0.0543
     10 C          -0.4981   -2.4381   -5.5006 C.2     1  LIG1       -0.0572
     11 C           0.8386   -2.3963   -5.5740 C.2     1  LIG1        0.0203
     12 C           1.6220   -1.7940   -6.6826 C.2     1  LIG1        0.3319
     13 O           2.8128   -1.9892   -6.8163 O.2     1  LIG1       -0.2456
     14 O           0.8639   -0.8934   -7.3585 O.3     1  LIG1       -0.4583
     15 C           1.5922    0.1873   -7.9721 C.3     1  LIG1        0.1034
     16 C           2.2300   -0.2161   -9.3035 C.3     1  LIG1       -0.0157
     17 C           1.1831   -0.5513  -10.3591 C.3     1  LIG1       -0.0497
     18 C           0.2253    0.6154  -10.5710 C.3     1  LIG1       -0.0528
     19 C          -0.4262    1.0668   -9.2670 C.3     1  LIG1       -0.0497
     20 C           0.5937    1.3364   -8.1588 C.3     1  LIG1       -0.0157
     21 C          -1.5775   -4.4468   -4.4700 C.3     1  LIG1       -0.0197
     22 C          -2.3497   -5.0860   -3.3019 C.3     1  LIG1        0.0389
     23 H          -3.3611   -4.6772   -3.2223 H       1  LIG1        0.0395
     24 C          -1.6475   -5.0471   -1.9353 C.3     1  LIG1       -0.0262
     25 C          -0.6967   -6.2287   -1.9853 C.3     1  LIG1        0.0123
     26 N          -1.4253   -7.1789   -2.7671 N.am    1  LIG1       -0.3151
     27 C          -2.4178   -6.5870   -3.5309 C.2     1  LIG1        0.2162
     28 O          -3.1619   -7.1675   -4.2902 O.2     1  LIG1       -0.2755
     29 N          -3.9660    0.4006   -1.9852 N.ar    1  LIG1       -0.3018
     30 C          -3.1209    1.3959   -1.5147 C.ar    1  LIG1        0.0089
     31 C          -3.1928    1.8315   -0.2529 C.ar    1  LIG1       -0.0435
     32 C          -4.0812    1.1877    0.6808 C.ar    1  LIG1       -0.0338
     33 C          -4.9381    0.2348    0.2812 C.ar    1  LIG1        0.0991
     34 N          -5.7744   -0.4905    1.1053 N.am    1  LIG1       -0.2758
     35 C          -5.5244   -0.8384    2.4144 C.2     1  LIG1        0.2700
     36 O          -4.5151   -0.5150    3.0476 O.2     1  LIG1       -0.2681
     37 C          -6.5736   -1.6379    3.0414 C.ar    1  LIG1        0.1681
     38 C          -6.8740   -1.6713    4.4230 C.ar    1  LIG1        0.0125
     39 C          -7.9492   -2.5115    4.5289 C.ar    1  LIG1        0.1350
     40 C          -8.7888   -2.9440    5.6600 C.3     1  LIG1       -0.0037
     41 O          -8.2583   -2.9975    3.2957 O.2     1  LIG1       -0.3592
     42 N          -7.4103   -2.4338    2.3490 N.ar    1  LIG1       -0.0734
     43 C          -4.9750   -0.1348   -1.1823 C.ar    1  LIG1        0.2733
     44 O          -5.8314   -0.9276   -1.5778 O.2     1  LIG1       -0.2656
     45 H          -5.1685    2.2888   -5.3454 H       1  LIG1        0.0231
     46 H          -5.1902    2.2893   -3.5808 H       1  LIG1        0.0231
     47 H          -5.9898    0.9820   -4.4734 H       1  LIG1        0.0231
     48 H          -2.9722    1.5389   -4.4103 H       1  LIG1        0.0287
     49 H          -3.7227    0.3260   -5.4255 H       1  LIG1        0.0287
     50 H          -3.3192   -2.4862   -4.4864 H       1  LIG1        0.1493
     51 H          -1.0909   -2.0551   -6.3287 H       1  LIG1        0.0593
     52 H           1.4717   -2.7793   -4.7771 H       1  LIG1        0.0686
     53 H           2.3702    0.5240   -7.2746 H       1  LIG1        0.0734
     54 H           2.8881   -1.0815   -9.1773 H       1  LIG1        0.0301
     55 H           2.8555    0.6106   -9.6646 H       1  LIG1        0.0301
     56 H           0.6226   -1.4434  -10.0556 H       1  LIG1        0.0266
     57 H           1.6821   -0.7938  -11.3043 H       1  LIG1        0.0266
     58 H          -0.5509    0.3256  -11.2881 H       1  LIG1        0.0265
     59 H           0.7715    1.4565  -11.0154 H       1  LIG1        0.0265
     60 H          -1.1351    0.2997   -8.9328 H       1  LIG1        0.0266
     61 H          -1.0102    1.9767   -9.4491 H       1  LIG1        0.0266
     62 H           0.0454    1.5032   -7.2227 H       1  LIG1        0.0301
     63 H           1.1393    2.2596   -8.3861 H       1  LIG1        0.0301
     64 H          -0.6423   -4.9993   -4.6404 H       1  LIG1        0.0293
     65 H          -2.1673   -4.5870   -5.3869 H       1  LIG1        0.0293
     66 H          -2.3990   -5.2360   -1.1546 H       1  LIG1        0.0288
     67 H          -1.1562   -4.1052   -1.6887 H       1  LIG1        0.0288
     68 H          -0.4706   -6.6431   -1.0003 H       1  LIG1        0.0462
     69 H           0.2336   -5.9867   -2.5092 H       1  LIG1        0.0462
     70 H          -1.2684   -8.1788   -2.7958 H       1  LIG1        0.1487
     71 H          -2.3831    1.8020   -2.2012 H       1  LIG1        0.0810
     72 H          -2.5341    2.6154    0.1074 H       1  LIG1        0.0633
     73 H          -4.0027    1.4957    1.7183 H       1  LIG1        0.0638
     74 H          -6.5304   -0.9941    0.6386 H       1  LIG1        0.1553
     75 H          -6.3874   -1.1137    5.2095 H       1  LIG1        0.0676
     76 H          -8.7477   -2.2056    6.4685 H       1  LIG1        0.0309
     77 H          -8.4392   -3.9011    6.0570 H       1  LIG1        0.0309
     78 H          -9.8349   -3.0499    5.3583 H       1  LIG1        0.0309
@<TRIPOS>BOND
     1     1     2    1
     2     2     3    1
     3     3     4    1
     4     3     5    1
     5     5     6    2
     6     5     7   am
     7     8    10    1
     8    10    11    2
     9    11    12    1
    10    12    13    2
    11    12    14    1
    12    14    15    1
    13    15    16    1
    14    16    17    1
    15    17    18    1
    16    18    19    1
    17    19    20    1
    18    15    20    1
    19     8    21    1
    20    22    24    1
    21    24    25    1
    22    25    26    1
    23    26    27   am
    24    22    27    1
    25    27    28    2
    26     3    29    1
    27    29    30   ar
    28    30    31   ar
    29    31    32   ar
    30    32    33   ar
    31    33    34    1
    32    34    35   am
    33    35    36    2
    34    35    37    1
    35    37    38   ar
    36    38    39   ar
    37    39    40    1
    38    39    41   ar
    39    41    42   ar
    40    37    42   ar
    41    33    43   ar
    42    29    43   ar
    43    43    44    2
    44    22    23    1
    45    22    21    1
    46     8     9    1
    47     8     7    1
    48     1    45    1
    49     1    46    1
    50     1    47    1
    51     2    48    1
    52     2    49    1
    53     7    50    1
    54    10    51    1
    55    11    52    1
    56    15    53    1
    57    16    54    1
    58    16    55    1
    59    17    56    1
    60    17    57    1
    61    18    58    1
    62    18    59    1
    63    19    60    1
    64    19    61    1
    65    20    62    1
    66    20    63    1
    67    21    64    1
    68    21    65    1
    69    24    66    1
    70    24    67    1
    71    25    68    1
    72    25    69    1
    73    26    70    1
    74    30    71    1
    75    31    72    1
    76    32    73    1
    77    34    74    1
    78    38    75    1
    79    40    76    1
    80    40    77    1
    81    40    78    1
@<TRIPOS>MOLECULE
*****
 72 75 0 0 0
SMALL
GASTEIGER

@<TRIPOS>ATOM
      1 C          -3.6161    1.3381    0.4583 C.3     1  LIG1       -0.0629
      2 C          -4.6215    0.3816    1.0984 C.3     1  LIG1       -0.0263
      3 C          -4.0310   -0.7795    1.9354 C.3     1  LIG1        0.1129
      4 H          -3.4968   -0.3262    2.7823 H       1  LIG1        0.0625
      5 C          -5.1606   -1.6610    2.5514 C.2     1  LIG1        0.2364
      6 O          -6.2668   -1.7541    2.0287 O.2     1  LIG1       -0.2735
      7 N          -4.7740   -2.3987    3.6586 N.am    1  LIG1       -0.3073
      8 C          -5.5830   -3.4182    4.3478 C.3     1  LIG1        0.0427
      9 H          -5.1187   -3.5022    5.3384 H       1  LIG1        0.0543
     10 C          -5.3969   -4.7131    3.6047 C.2     1  LIG1       -0.0572
     11 C          -4.3518   -5.5453    3.7361 C.2     1  LIG1        0.0203
     12 C          -4.3716   -6.8618    3.0464 C.2     1  LIG1        0.3319
     13 O          -5.2660   -7.2916    2.3555 O.2     1  LIG1       -0.2456
     14 O          -3.2613   -7.5312    3.4440 O.3     1  LIG1       -0.4583
     15 C          -3.5055   -8.8679    3.9202 C.3     1  LIG1        0.1034
     16 C          -3.7394  -10.0294    2.9247 C.3     1  LIG1       -0.0155
     17 C          -2.8571  -10.9031    3.8457 C.3     1  LIG1       -0.0464
     18 C          -2.2078   -9.6023    4.3385 C.3     1  LIG1       -0.0155
     19 C          -7.0691   -3.0212    4.5611 C.3     1  LIG1       -0.0197
     20 C          -7.9522   -3.9635    5.4136 C.3     1  LIG1        0.0389
     21 H          -8.0174   -4.9720    4.9932 H       1  LIG1        0.0395
     22 C          -9.3779   -3.3878    5.5647 C.3     1  LIG1       -0.0262
     23 C          -9.2701   -2.4452    6.7516 C.3     1  LIG1        0.0123
     24 N          -8.2664   -3.0661    7.5623 N.am    1  LIG1       -0.3151
     25 C          -7.5420   -4.0148    6.8710 C.2     1  LIG1        0.2162
     26 O          -6.6936   -4.7454    7.3604 O.2     1  LIG1       -0.2755
     27 N          -3.0829   -1.6210    1.1799 N.ar    1  LIG1       -0.3018
     28 C          -3.5217   -2.7064    0.4332 C.ar    1  LIG1        0.0089
     29 C          -2.6632   -3.4790   -0.2411 C.ar    1  LIG1       -0.0435
     30 C          -1.2564   -3.1661   -0.2550 C.ar    1  LIG1       -0.0338
     31 C          -0.7696   -2.1301    0.4450 C.ar    1  LIG1        0.0991
     32 N           0.5407   -1.7289    0.5282 N.am    1  LIG1       -0.2758
     33 C           1.6690   -2.2807   -0.0515 C.2     1  LIG1        0.2700
     34 O           1.6841   -3.2630   -0.7725 O.2     1  LIG1       -0.2681
     35 C           2.8993   -1.5642    0.3090 C.ar    1  LIG1        0.1681
     36 C           4.2275   -1.8491   -0.1011 C.ar    1  LIG1        0.0125
     37 C           5.0018   -0.9456    0.5845 C.ar    1  LIG1        0.1350
     38 C           6.4504   -0.7067    0.7107 C.3     1  LIG1       -0.0037
     39 O           4.1962   -0.1287    1.3115 O.2     1  LIG1       -0.3592
     40 N           2.8789   -0.5070    1.1415 N.ar    1  LIG1       -0.0734
     41 C          -1.7318   -1.2888    1.2501 C.ar    1  LIG1        0.2733
     42 O          -1.2816   -0.3641    1.9279 O.2     1  LIG1       -0.2656
     43 H          -4.1139    2.2771    0.1858 H       1  LIG1        0.0231
     44 H          -3.2033    0.9158   -0.4637 H       1  LIG1        0.0231
     45 H          -2.7912    1.5940    1.1289 H       1  LIG1        0.0231
     46 H          -5.2672   -0.0106    0.3049 H       1  LIG1        0.0287
     47 H          -5.2694    0.9747    1.7574 H       1  LIG1        0.0287
     48 H          -3.7744   -2.4552    3.8155 H       1  LIG1        0.1493
     49 H          -6.2087   -5.0039    2.9397 H       1  LIG1        0.0593
     50 H          -3.5083   -5.3433    4.3881 H       1  LIG1        0.0686
     51 H          -4.2476   -8.8594    4.7317 H       1  LIG1        0.0734
     52 H          -3.3255   -9.8700    1.9240 H       1  LIG1        0.0301
     53 H          -4.7736  -10.3759    2.8340 H       1  LIG1        0.0301
     54 H          -2.1854  -11.6053    3.3465 H       1  LIG1        0.0268
     55 H          -3.4109  -11.4327    4.6300 H       1  LIG1        0.0268
     56 H          -1.3275   -9.2967    3.7606 H       1  LIG1        0.0301
     57 H          -1.9679   -9.5561    5.4033 H       1  LIG1        0.0301
     58 H          -7.5652   -2.9400    3.5869 H       1  LIG1        0.0293
     59 H          -7.0818   -2.0129    4.9936 H       1  LIG1        0.0293
     60 H         -10.0686   -4.2048    5.8159 H       1  LIG1        0.0288
     61 H          -9.7588   -2.8983    4.6640 H       1  LIG1        0.0288
     62 H         -10.2076   -2.3570    7.3080 H       1  LIG1        0.0462
     63 H          -8.9157   -1.4503    6.4678 H       1  LIG1        0.0462
     64 H          -8.0977   -2.8803    8.5447 H       1  LIG1        0.1487
     65 H          -4.5838   -2.9405    0.4288 H       1  LIG1        0.0810
     66 H          -3.0075   -4.3514   -0.7893 H       1  LIG1        0.0633
     67 H          -0.6259   -3.8053   -0.8635 H       1  LIG1        0.0638
     68 H           0.6990   -0.9095    1.1157 H       1  LIG1        0.1553
     69 H           4.5608   -2.6296   -0.7689 H       1  LIG1        0.0676
     70 H           6.7111    0.2963    0.3601 H       1  LIG1        0.0309
     71 H           7.0245   -1.4349    0.1301 H       1  LIG1        0.0309
     72 H           6.7567   -0.7941    1.7584 H       1  LIG1        0.0309
@<TRIPOS>BOND
     1     1     2    1
     2     2     3    1
     3     3     4    1
     4     3     5    1
     5     5     6    2
     6     5     7   am
     7     8    10    1
     8    10    11    2
     9    11    12    1
    10    12    13    2
    11    12    14    1
    12    14    15    1
    13    15    16    1
    14    16    17    1
    15    17    18    1
    16    15    18    1
    17     8    19    1
    18    20    22    1
    19    22    23    1
    20    23    24    1
    21    24    25   am
    22    20    25    1
    23    25    26    2
    24     3    27    1
    25    27    28   ar
    26    28    29   ar
    27    29    30   ar
    28    30    31   ar
    29    31    32    1
    30    32    33   am
    31    33    34    2
    32    33    35    1
    33    35    36   ar
    34    36    37   ar
    35    37    38    1
    36    37    39   ar
    37    39    40   ar
    38    35    40   ar
    39    31    41   ar
    40    27    41   ar
    41    41    42    2
    42     8     9    1
    43     8     7    1
    44    20    21    1
    45    20    19    1
    46     1    43    1
    47     1    44    1
    48     1    45    1
    49     2    46    1
    50     2    47    1
    51     7    48    1
    52    10    49    1
    53    11    50    1
    54    15    51    1
    55    16    52    1
    56    16    53    1
    57    17    54    1
    58    17    55    1
    59    18    56    1
    60    18    57    1
    61    19    58    1
    62    19    59    1
    63    22    60    1
    64    22    61    1
    65    23    62    1
    66    23    63    1
    67    24    64    1
    68    28    65    1
    69    29    66    1
    70    30    67    1
    71    32    68    1
    72    36    69    1
    73    38    70    1
    74    38    71    1
    75    38    72    1
@<TRIPOS>MOLECULE
*****
 74 77 0 0 0
SMALL
GASTEIGER

@<TRIPOS>ATOM
      1 C          -4.2817    2.6354    2.8659 C.1     1  LIG1       -0.1191
      2 C          -3.2893    2.7293    2.2176 C.1     1  LIG1       -0.1030
      3 C          -2.0103    2.8276    1.4708 C.3     1  LIG1        0.0383
      4 C          -0.9875    3.8549    2.0381 C.3     1  LIG1        0.1239
      5 H          -0.1388    3.8359    1.3386 H       1  LIG1        0.0634
      6 C          -1.5694    5.2929    1.9937 C.2     1  LIG1        0.2374
      7 O          -2.1618    5.7998    2.9456 O.2     1  LIG1       -0.2735
      8 N          -1.4659    5.9432    0.7677 N.am    1  LIG1       -0.3073
      9 C          -2.0839    7.2546    0.5518 C.3     1  LIG1        0.0427
     10 H          -1.7891    7.9007    1.3858 H       1  LIG1        0.0543
     11 C          -3.5839    7.0204    0.5838 C.2     1  LIG1       -0.0572
     12 C          -4.5092    7.8172    1.1444 C.2     1  LIG1        0.0203
     13 C          -5.9384    7.4180    1.1211 C.2     1  LIG1        0.3320
     14 O          -6.3989    6.4357    0.5638 O.2     1  LIG1       -0.2456
     15 O          -6.6208    8.4084    1.7422 O.3     1  LIG1       -0.4568
     16 C          -8.0226    8.4668    1.4671 C.3     1  LIG1        0.1178
     17 C          -8.2201    9.2985    0.2243 C.ar    1  LIG1       -0.0103
     18 C          -8.2559    8.6836   -1.0354 C.ar    1  LIG1       -0.0554
     19 C          -8.3681    9.4490   -2.1957 C.ar    1  LIG1       -0.0614
     20 C          -8.4502   10.8368   -2.1091 C.ar    1  LIG1       -0.0617
     21 C          -8.4097   11.4608   -0.8630 C.ar    1  LIG1       -0.0614
     22 C          -8.2852   10.6969    0.2991 C.ar    1  LIG1       -0.0554
     23 C          -1.6447    7.9109   -0.7873 C.3     1  LIG1       -0.0197
     24 C          -0.1246    8.1660   -0.9303 C.3     1  LIG1        0.0389
     25 H           0.4312    7.2238   -0.9155 H       1  LIG1        0.0395
     26 C           0.4851    9.1577    0.0759 C.3     1  LIG1       -0.0262
     27 C           0.1963   10.5163   -0.5357 C.3     1  LIG1        0.0123
     28 N           0.3140   10.2523   -1.9355 N.am    1  LIG1       -0.3151
     29 C           0.1985    8.9053   -2.2252 C.2     1  LIG1        0.2162
     30 O           0.3364    8.4122   -3.3301 O.2     1  LIG1       -0.2755
     31 N          -0.4430    3.5097    3.3824 N.ar    1  LIG1       -0.3009
     32 C          -1.2900    3.4463    4.4754 C.ar    1  LIG1        0.0089
     33 C          -0.8383    3.1748    5.6982 C.ar    1  LIG1       -0.0435
     34 C           0.5263    2.7809    5.8869 C.ar    1  LIG1       -0.0338
     35 C           1.4287    2.8637    4.8966 C.ar    1  LIG1        0.0991
     36 N           2.7388    2.3962    4.9685 N.am    1  LIG1       -0.2758
     37 C           3.3398    1.7598    6.0547 C.2     1  LIG1        0.2700
     38 O           2.7935    1.5486    7.1349 O.2     1  LIG1       -0.2681
     39 C           4.7420    1.3507    5.8829 C.ar    1  LIG1        0.1681
     40 C           5.7055    1.2292    6.9257 C.ar    1  LIG1        0.0125
     41 C           6.8073    0.6713    6.3305 C.ar    1  LIG1        0.1350
     42 C           8.1194    0.2069    6.8281 C.3     1  LIG1       -0.0037
     43 O           6.5538    0.5141    5.0016 O.2     1  LIG1       -0.3592
     44 N           5.2672    0.9613    4.7094 N.ar    1  LIG1       -0.0734
     45 C           0.9444    3.4970    3.5894 C.ar    1  LIG1        0.2733
     46 O           1.7543    3.9290    2.7693 O.2     1  LIG1       -0.2656
     47 H          -5.1417    2.5526    3.5009 H       1  LIG1        0.1228
     48 H          -2.2490    3.0795    0.4291 H       1  LIG1        0.0422
     49 H          -1.5573    1.8273    1.4521 H       1  LIG1        0.0422
     50 H          -0.6641    5.6992    0.2006 H       1  LIG1        0.1493
     51 H          -3.9358    6.0680    0.1875 H       1  LIG1        0.0593
     52 H          -4.2869    8.7732    1.6023 H       1  LIG1        0.0686
     53 H          -8.4999    8.9578    2.3228 H       1  LIG1        0.0749
     54 H          -8.4823    7.4749    1.3780 H       1  LIG1        0.0749
     55 H          -8.1778    7.6007   -1.1193 H       1  LIG1        0.0621
     56 H          -8.3828    8.9594   -3.1657 H       1  LIG1        0.0618
     57 H          -8.5382   11.4319   -3.0142 H       1  LIG1        0.0618
     58 H          -8.4674   12.5443   -0.7977 H       1  LIG1        0.0618
     59 H          -8.2303   11.1993    1.2625 H       1  LIG1        0.0621
     60 H          -2.1870    8.8589   -0.9181 H       1  LIG1        0.0293
     61 H          -1.9683    7.2834   -1.6309 H       1  LIG1        0.0293
     62 H           1.5750    9.0031    0.0888 H       1  LIG1        0.0288
     63 H           0.1356    9.0708    1.1048 H       1  LIG1        0.0288
     64 H           0.9095   11.2842   -0.2264 H       1  LIG1        0.0462
     65 H          -0.8247   10.8556   -0.3364 H       1  LIG1        0.0462
     66 H           0.5488   10.9299   -2.6509 H       1  LIG1        0.1487
     67 H          -2.3326    3.6924    4.3342 H       1  LIG1        0.0810
     68 H          -1.5063    3.1849    6.5499 H       1  LIG1        0.0633
     69 H           0.7443    2.3608    6.8599 H       1  LIG1        0.0638
     70 H           3.2983    2.5165    4.1260 H       1  LIG1        0.1553
     71 H           5.5785    1.4794    7.9693 H       1  LIG1        0.0676
     72 H           8.1616    0.2419    7.9226 H       1  LIG1        0.0309
     73 H           8.9331    0.8272    6.4404 H       1  LIG1        0.0309
     74 H           8.3020   -0.8293    6.5249 H       1  LIG1        0.0309
@<TRIPOS>BOND
     1     1     2    3
     2     2     3    1
     3     3     4    1
     4     4     5    1
     5     4     6    1
     6     6     7    2
     7     6     8   am
     8     9    11    1
     9    11    12    2
    10    12    13    1
    11    13    14    2
    12    13    15    1
    13    15    16    1
    14    16    17    1
    15    17    18   ar
    16    18    19   ar
    17    19    20   ar
    18    20    21   ar
    19    21    22   ar
    20    17    22   ar
    21     9    23    1
    22    24    26    1
    23    26    27    1
    24    27    28    1
    25    28    29   am
    26    24    29    1
    27    29    30    2
    28     4    31    1
    29    31    32   ar
    30    32    33   ar
    31    33    34   ar
    32    34    35   ar
    33    35    36    1
    34    36    37   am
    35    37    38    2
    36    37    39    1
    37    39    40   ar
    38    40    41   ar
    39    41    42    1
    40    41    43   ar
    41    43    44   ar
    42    39    44   ar
    43    35    45   ar
    44    31    45   ar
    45    45    46    2
    46    24    25    1
    47    24    23    1
    48     9    10    1
    49     9     8    1
    50     1    47    1
    51     3    48    1
    52     3    49    1
    53     8    50    1
    54    11    51    1
    55    12    52    1
    56    16    53    1
    57    16    54    1
    58    18    55    1
    59    19    56    1
    60    20    57    1
    61    21    58    1
    62    22    59    1
    63    23    60    1
    64    23    61    1
    65    26    62    1
    66    26    63    1
    67    27    64    1
    68    27    65    1
    69    28    66    1
    70    32    67    1
    71    33    68    1
    72    34    69    1
    73    36    70    1
    74    40    71    1
    75    42    72    1
    76    42    73    1
    77    42    74    1
@<TRIPOS>MOLECULE
*****
 70 72 0 0 0
SMALL
GASTEIGER

@<TRIPOS>ATOM
      1 C          -1.9035    0.1672    3.7804 C.1     1  LIG1       -0.1191
      2 C          -1.1080    1.0593    4.0597 C.1     1  LIG1       -0.1030
      3 C          -0.1582    2.1103    4.4833 C.3     1  LIG1        0.0383
      4 C          -0.7504    3.2544    5.3320 C.3     1  LIG1        0.1239
      5 H           0.0803    3.9595    5.4656 H       1  LIG1        0.0634
      6 C          -1.8640    4.0339    4.5887 C.2     1  LIG1        0.2374
      7 O          -3.0454    3.7179    4.7234 O.2     1  LIG1       -0.2735
      8 N          -1.4415    5.0334    3.7034 N.am    1  LIG1       -0.3073
      9 C          -2.3780    5.8520    2.8939 C.3     1  LIG1        0.0430
     10 H          -2.7421    6.6605    3.5370 H       1  LIG1        0.0543
     11 C          -3.5153    4.9721    2.4247 C.2     1  LIG1       -0.0543
     12 C          -4.8284    5.2365    2.2552 C.2     1  LIG1        0.0313
     13 C          -5.5141    6.5625    2.3340 C.3     1  LIG1       -0.0332
     14 C          -5.7219    4.1138    1.8474 C.2     1  LIG1        0.3346
     15 O          -6.7222    4.2760    1.1640 O.2     1  LIG1       -0.2453
     16 O          -5.2594    2.9259    2.3081 O.3     1  LIG1       -0.4617
     17 C          -5.8355    1.7696    1.6998 C.3     1  LIG1        0.0900
     18 C          -7.2463    1.5144    2.1919 C.3     1  LIG1       -0.0306
     19 C          -1.7133    6.4160    1.6133 C.3     1  LIG1       -0.0197
     20 C          -0.4772    7.3242    1.7390 C.3     1  LIG1        0.0389
     21 H           0.3983    6.7653    2.0829 H       1  LIG1        0.0395
     22 C          -0.6545    8.6102    2.5567 C.3     1  LIG1       -0.0262
     23 C          -1.3358    9.5640    1.5909 C.3     1  LIG1        0.0123
     24 N          -0.7521    9.1973    0.3372 N.am    1  LIG1       -0.3151
     25 C          -0.1923    7.9332    0.3687 C.2     1  LIG1        0.2162
     26 O           0.3797    7.3964   -0.5626 O.2     1  LIG1       -0.2755
     27 N          -1.2029    2.8545    6.6975 N.ar    1  LIG1       -0.3009
     28 C          -2.2270    1.9285    6.8625 C.ar    1  LIG1        0.0089
     29 C          -2.6754    1.5770    8.0694 C.ar    1  LIG1       -0.0435
     30 C          -2.0421    2.0915    9.2478 C.ar    1  LIG1       -0.0338
     31 C          -1.0879    3.0308    9.1772 C.ar    1  LIG1        0.0991
     32 N          -0.3830    3.5296   10.2564 N.am    1  LIG1       -0.2758
     33 C          -0.5047    3.1689   11.5884 C.2     1  LIG1        0.2700
     34 O          -1.3086    2.3578   12.0382 O.2     1  LIG1       -0.2681
     35 C           0.4071    3.8792   12.4833 C.ar    1  LIG1        0.1681
     36 C           0.1996    4.1656   13.8575 C.ar    1  LIG1        0.0125
     37 C           1.3297    4.8400   14.2423 C.ar    1  LIG1        0.1350
     38 C           1.7788    5.4613   15.5006 C.3     1  LIG1       -0.0037
     39 O           2.1734    4.9392   13.1807 O.2     1  LIG1       -0.3592
     40 N           1.5922    4.3562   12.0675 N.ar    1  LIG1       -0.0734
     41 C          -0.7170    3.5677    7.8013 C.ar    1  LIG1        0.2733
     42 O           0.0111    4.5582    7.7132 O.2     1  LIG1       -0.2656
     43 H          -2.6107   -0.5920    3.6283 H       1  LIG1        0.1228
     44 H           0.3194    2.5224    3.5812 H       1  LIG1        0.0422
     45 H           0.6451    1.6143    5.0505 H       1  LIG1        0.0422
     46 H          -0.6022    5.5155    4.0052 H       1  LIG1        0.1493
     47 H          -3.1986    3.9384    2.2740 H       1  LIG1        0.0595
     48 H          -4.8756    7.3759    1.9804 H       1  LIG1        0.0280
     49 H          -5.8286    6.7601    3.3619 H       1  LIG1        0.0280
     50 H          -6.4169    6.5897    1.7102 H       1  LIG1        0.0280
     51 H          -5.1928    0.9225    1.9631 H       1  LIG1        0.0695
     52 H          -5.7952    1.8758    0.6099 H       1  LIG1        0.0695
     53 H          -7.2569    1.3945    3.2791 H       1  LIG1        0.0262
     54 H          -7.6583    0.6180    1.7222 H       1  LIG1        0.0262
     55 H          -7.9133    2.3502    1.9638 H       1  LIG1        0.0262
     56 H          -2.4854    6.9503    1.0395 H       1  LIG1        0.0293
     57 H          -1.4231    5.5734    0.9669 H       1  LIG1        0.0293
     58 H           0.3441    9.0114    2.7880 H       1  LIG1        0.0288
     59 H          -1.1849    8.4853    3.5015 H       1  LIG1        0.0288
     60 H          -1.1344   10.6162    1.8063 H       1  LIG1        0.0462
     61 H          -2.4156    9.3949    1.5374 H       1  LIG1        0.0462
     62 H          -0.7102    9.7729   -0.4964 H       1  LIG1        0.1487
     63 H          -2.7083    1.5225    5.9807 H       1  LIG1        0.0810
     64 H          -3.4986    0.8794    8.1854 H       1  LIG1        0.0633
     65 H          -2.3617    1.6431   10.1804 H       1  LIG1        0.0638
     66 H           0.3254    4.2289   10.0339 H       1  LIG1        0.1553
     67 H          -0.6683    3.9292   14.4565 H       1  LIG1        0.0676
     68 H           1.3327    4.9626   16.3667 H       1  LIG1        0.0309
     69 H           1.4883    6.5163   15.5260 H       1  LIG1        0.0309
     70 H           2.8669    5.4028   15.5994 H       1  LIG1        0.0309
@<TRIPOS>BOND
     1     1     2    3
     2     2     3    1
     3     3     4    1
     4     4     5    1
     5     4     6    1
     6     6     7    2
     7     6     8   am
     8     9    11    1
     9    11    12    2
    10    12    13    1
    11    12    14    1
    12    14    15    2
    13    14    16    1
    14    16    17    1
    15    17    18    1
    16     9    19    1
    17    20    22    1
    18    22    23    1
    19    23    24    1
    20    24    25   am
    21    20    25    1
    22    25    26    2
    23     4    27    1
    24    27    28   ar
    25    28    29   ar
    26    29    30   ar
    27    30    31   ar
    28    31    32    1
    29    32    33   am
    30    33    34    2
    31    33    35    1
    32    35    36   ar
    33    36    37   ar
    34    37    38    1
    35    37    39   ar
    36    39    40   ar
    37    35    40   ar
    38    31    41   ar
    39    27    41   ar
    40    41    42    2
    41    20    21    1
    42    20    19    1
    43     9    10    1
    44     9     8    1
    45     1    43    1
    46     3    44    1
    47     3    45    1
    48     8    46    1
    49    11    47    1
    50    13    48    1
    51    13    49    1
    52    13    50    1
    53    17    51    1
    54    17    52    1
    55    18    53    1
    56    18    54    1
    57    18    55    1
    58    19    56    1
    59    19    57    1
    60    22    58    1
    61    22    59    1
    62    23    60    1
    63    23    61    1
    64    24    62    1
    65    28    63    1
    66    29    64    1
    67    30    65    1
    68    32    66    1
    69    36    67    1
    70    38    68    1
    71    38    69    1
    72    38    70    1
@<TRIPOS>MOLECULE
*****
 57 59 0 0 0
SMALL
GASTEIGER

@<TRIPOS>ATOM
      1 C           5.0336    3.8274   -2.5303 C.3     1  LIG1       -0.0253
      2 C           6.2704    2.9478   -2.7594 C.3     1  LIG1        0.1068
      3 C           6.1890    2.3630   -4.1763 C.3     1  LIG1       -0.0253
      4 C           7.5772    3.7314   -2.6294 C.3     1  LIG1       -0.0253
      5 O           6.2240    1.8092   -1.8658 O.3     1  LIG1       -0.4447
      6 C           6.2804    2.0245   -0.5301 C.2     1  LIG1        0.4013
      7 O           6.6763    3.0338    0.0324 O.2     1  LIG1       -0.2264
      8 N           5.7411    1.0011    0.1776 N.am    1  LIG1       -0.2714
      9 C           5.2588   -0.2690   -0.3617 C.3     1  LIG1        0.0871
     10 H           6.1054   -0.7432   -0.8669 H       1  LIG1        0.0579
     11 C           4.7529   -1.1009    0.8272 C.3     1  LIG1       -0.0163
     12 C           4.1440   -2.4514    0.4616 C.3     1  LIG1        0.0390
     13 H           3.3240   -2.3487   -0.2542 H       1  LIG1        0.0395
     14 C           3.6493   -3.2007    1.7086 C.3     1  LIG1       -0.0262
     15 C           4.8263   -4.0662    2.1131 C.3     1  LIG1        0.0123
     16 N           5.4772   -4.3399    0.8687 N.am    1  LIG1       -0.3151
     17 C           5.2029   -3.3851   -0.0825 C.2     1  LIG1        0.2162
     18 O           5.7804   -3.2594   -1.1489 O.2     1  LIG1       -0.2755
     19 C           4.1234   -0.0217   -1.3746 C.2     1  LIG1        0.1747
     20 O           3.1683    0.7080   -1.0914 O.2     1  LIG1       -0.2935
     21 C           4.2804   -0.7233   -2.7391 C.3     1  LIG1        0.1032
     22 N           3.1836   -0.3638   -3.6268 N.ar    1  LIG1       -0.2417
     23 N           3.5343    0.0771   -4.9086 N.ar    1  LIG1       -0.2599
     24 H           4.4833   -0.0403   -5.2473 H       1  LIG1        0.1903
     25 C           2.6108    0.6236   -5.7682 C.ar    1  LIG1        0.2712
     26 O           2.9356    1.0896   -6.8554 O.2     1  LIG1       -0.2658
     27 C           1.2029    0.5842   -5.3284 C.ar    1  LIG1        0.0530
     28 C           0.2130    1.2451   -6.0656 C.ar    1  LIG1       -0.0486
     29 C          -1.1179    1.1957   -5.6403 C.ar    1  LIG1       -0.0610
     30 C          -1.4574    0.4803   -4.4933 C.ar    1  LIG1       -0.0610
     31 C          -0.4780   -0.2020   -3.7721 C.ar    1  LIG1       -0.0486
     32 C           0.8541   -0.1496   -4.1929 C.ar    1  LIG1        0.0532
     33 C           1.8990   -0.8178   -3.3923 C.ar    1  LIG1        0.2739
     34 O           1.6103   -1.6500   -2.5345 O.2     1  LIG1       -0.2656
     35 H           5.0181    4.6850   -3.2072 H       1  LIG1        0.0268
     36 H           4.9828    4.2005   -1.5019 H       1  LIG1        0.0268
     37 H           4.1134    3.2473   -2.6831 H       1  LIG1        0.0268
     38 H           6.3700    3.1226   -4.9426 H       1  LIG1        0.0268
     39 H           5.1929    1.9513   -4.3589 H       1  LIG1        0.0268
     40 H           6.8973    1.5398   -4.3157 H       1  LIG1        0.0268
     41 H           7.6918    4.4542   -3.4437 H       1  LIG1        0.0268
     42 H           8.4383    3.0537   -2.6335 H       1  LIG1        0.0268
     43 H           7.6229    4.3015   -1.6970 H       1  LIG1        0.0268
     44 H           5.6795    1.1918    1.1690 H       1  LIG1        0.1527
     45 H           3.9966   -0.5182    1.3723 H       1  LIG1        0.0295
     46 H           5.5864   -1.2411    1.5300 H       1  LIG1        0.0295
     47 H           2.8006   -3.8381    1.4303 H       1  LIG1        0.0288
     48 H           3.3160   -2.5422    2.5172 H       1  LIG1        0.0288
     49 H           4.5280   -4.9958    2.6016 H       1  LIG1        0.0462
     50 H           5.5310   -3.5216    2.7501 H       1  LIG1        0.0462
     51 H           6.2421   -4.9917    0.7371 H       1  LIG1        0.1487
     52 H           4.2718   -1.8052   -2.5961 H       1  LIG1        0.0589
     53 H           5.2326   -0.4104   -3.1774 H       1  LIG1        0.0589
     54 H           0.4752    1.8048   -6.9604 H       1  LIG1        0.0625
     55 H          -1.8863    1.7183   -6.2017 H       1  LIG1        0.0618
     56 H          -2.4915    0.4584   -4.1478 H       1  LIG1        0.0618
     57 H          -0.7441   -0.7504   -2.8717 H       1  LIG1        0.0625
@<TRIPOS>BOND
     1     1     2    1
     2     2     3    1
     3     2     4    1
     4     2     5    1
     5     5     6    1
     6     6     7    2
     7     6     8   am
     8     8     9    1
     9     9    10    1
    10     9    11    1
    11    12    14    1
    12    14    15    1
    13    15    16    1
    14    16    17   am
    15    12    17    1
    16    17    18    2
    17     9    19    1
    18    19    20    2
    19    19    21    1
    20    21    22    1
    21    22    23   ar
    22    23    24    1
    23    23    25   ar
    24    25    26    2
    25    25    27   ar
    26    27    28   ar
    27    28    29   ar
    28    29    30   ar
    29    30    31   ar
    30    31    32   ar
    31    27    32   ar
    32    32    33   ar
    33    22    33   ar
    34    33    34    2
    35    12    13    1
    36    12    11    1
    37     1    35    1
    38     1    36    1
    39     1    37    1
    40     3    38    1
    41     3    39    1
    42     3    40    1
    43     4    41    1
    44     4    42    1
    45     4    43    1
    46     8    44    1
    47    11    45    1
    48    11    46    1
    49    14    47    1
    50    14    48    1
    51    15    49    1
    52    15    50    1
    53    16    51    1
    54    21    52    1
    55    21    53    1
    56    28    54    1
    57    29    55    1
    58    30    56    1
    59    31    57    1
@<TRIPOS>MOLECULE
*****
 74 75 0 0 0
SMALL
GASTEIGER

@<TRIPOS>ATOM
      1 C          20.9415   -1.9274   -5.8696 C.3     0  UNK0       -0.0253
      2 C          20.5613   -1.0276   -4.6886 C.3     0  UNK0        0.1068
      3 C          19.6512   -1.7685   -3.7003 C.3     0  UNK0       -0.0253
      4 C          21.8409   -0.5790   -3.9640 C.3     0  UNK0       -0.0253
      5 O          19.9244    0.2166   -5.0795 O.3     0  UNK0       -0.4447
      6 C          18.6356    0.2220   -5.5208 C.2     0  UNK0        0.4014
      7 O          18.0536   -0.6757   -6.0454 O.2     0  UNK0       -0.2264
      8 N          18.1199    1.4513   -5.1668 N.am    1  PHE1       -0.2695
      9 CA         16.8158    1.9052   -5.6268 C.3     1  PHE1        0.1064
     10 HA         16.2097    1.0079   -5.8229 H       1  PHE1        0.0599
     11 CB         16.0520    2.7430   -4.5771 C.3     1  PHE1       -0.0005
     12 CG         16.7766    3.9475   -4.0109 C.ar    1  PHE1       -0.0451
     13 CD1        17.5860    3.8295   -2.8721 C.ar    1  PHE1       -0.0585
     14 CE1        18.3386    4.9163   -2.4213 C.ar    1  PHE1       -0.0615
     15 CZ         18.3132    6.1214   -3.1188 C.ar    1  PHE1       -0.0617
     16 CE2        17.4833    6.2614   -4.2263 C.ar    1  PHE1       -0.0615
     17 CD2        16.6894    5.1937   -4.6461 C.ar    1  PHE1       -0.0585
     18 C          16.9853    2.6034   -7.0011 C.2     1  PHE1        0.2344
     19 O          16.3870    2.2190   -8.0049 O.2     1  PHE1       -0.2737
     20 N          17.8166    3.6980   -7.0384 N.am    2  UNK2       -0.3006
     21 C          18.0954    4.4702   -8.2551 C.3     2  UNK2        0.1226
     22 H          18.5128    3.7869   -8.9997 H       2  UNK2        0.0618
     23 C          16.8664    5.1921   -8.8280 C.3     2  UNK2        0.0711
     24 O          17.2319    6.0358   -9.9226 O.3     2  UNK2       -0.3927
     25 C          19.1397    5.5322   -7.8747 C.2     2  UNK2        0.2361
     26 O          18.8978    6.3356   -6.9756 O.2     2  UNK2       -0.2737
     27 N          20.3405    5.4474   -8.5550 N.am    2  UNK2       -0.3074
     28 C          21.5354    6.2846   -8.3557 C.3     2  UNK2        0.0427
     29 H          21.7803    6.6859   -9.3475 H       2  UNK2        0.0543
     30 C          22.6796    5.3791   -7.9391 C.2     2  UNK2       -0.0572
     31 C          22.8526    4.0717   -8.2131 C.2     2  UNK2        0.0202
     32 C          24.0452    3.3675   -7.6897 C.2     2  UNK2        0.3293
     33 O          25.0544    3.9179   -7.2853 O.2     2  UNK2       -0.2458
     34 O          23.8752    2.0305   -7.6740 O.3     2  UNK2       -0.4775
     35 C          21.2951    7.4733   -7.3897 C.3     2  UNK2       -0.0197
     36 C          22.4538    8.4484   -7.1717 C.3     2  UNK2        0.0389
     37 H          23.3606    7.9419   -6.8358 H       2  UNK2        0.0395
     38 C          22.0992    9.5595   -6.1636 C.3     2  UNK2       -0.0262
     39 C          21.5014   10.6736   -7.0033 C.3     2  UNK2        0.0123
     40 N          22.0923   10.4757   -8.2914 N.am    2  UNK2       -0.3151
     41 C          22.7220    9.2570   -8.4171 C.2     2  UNK2        0.2162
     42 O          23.3446    8.8824   -9.3947 O.2     2  UNK2       -0.2755
     43 H          21.4967   -2.8073   -5.5199 H       0  UNK0        0.0268
     44 H          21.5703   -1.3974   -6.5937 H       0  UNK0        0.0268
     45 H          20.0635   -2.2853   -6.4151 H       0  UNK0        0.0268
     46 H          20.1585   -2.6212   -3.2416 H       0  UNK0        0.0268
     47 H          18.7534   -2.1549   -4.1947 H       0  UNK0        0.0268
     48 H          19.3075   -1.0878   -2.9137 H       0  UNK0        0.0268
     49 H          22.2010   -1.3329   -3.2590 H       0  UNK0        0.0268
     50 H          21.6736    0.3577   -3.4172 H       0  UNK0        0.0268
     51 H          22.6487   -0.3734   -4.6776 H       0  UNK0        0.0268
     52 H          18.7033    2.0421   -4.5786 H       1  PHE1        0.1528
     53 HB1        15.7895    2.0891   -3.7335 H       1  PHE1        0.0336
     54 HB2        15.0981    3.0749   -5.0041 H       1  PHE1        0.0336
     55 HD1        17.6439    2.8884   -2.3289 H       1  PHE1        0.0620
     56 HE1        18.9564    4.8209   -1.5319 H       1  PHE1        0.0618
     57 HZ         18.9376    6.9525   -2.8017 H       1  PHE1        0.0618
     58 HE2        17.4803    7.1923   -4.7897 H       1  PHE1        0.0618
     59 HD2        16.0578    5.3269   -5.5223 H       1  PHE1        0.0620
     60 H          18.1548    4.0893   -6.1642 H       2  UNK2        0.1496
     61 H          16.3520    5.7970   -8.0711 H       2  UNK2        0.0580
     62 H          16.1454    4.4648   -9.2105 H       2  UNK2        0.0580
     63 H          16.9245    6.9358   -9.7075 H       2  UNK2        0.2095
     64 H          20.3716    4.8180   -9.3459 H       2  UNK2        0.1493
     65 H          23.4693    5.8616   -7.3645 H       2  UNK2        0.0593
     66 H          22.1586    3.5067   -8.8175 H       2  UNK2        0.0686
     67 H          23.0074    1.7107   -7.9794 H       2  UNK2        0.2954
     68 H          21.0249    7.0754   -6.4043 H       2  UNK2        0.0293
     69 H          20.4337    8.0402   -7.7707 H       2  UNK2        0.0293
     70 H          23.0284    9.9200   -5.7038 H       2  UNK2        0.0288
     71 H          21.4351    9.2439   -5.3523 H       2  UNK2        0.0288
     72 H          21.7709   11.6654   -6.6297 H       2  UNK2        0.0462
     73 H          20.4130   10.5990   -7.0902 H       2  UNK2        0.0462
     74 H          22.1507   11.1696   -9.0264 H       2  UNK2        0.1487
@<TRIPOS>BOND
     1     1     2    1
     2     2     3    1
     3     2     4    1
     4     2     5    1
     5     5     6    1
     6     6     7    2
     7     6     8   am
     8     8     9    1
     9     9    10    1
    10     9    11    1
    11    11    12    1
    12    12    13   ar
    13    13    14   ar
    14    14    15   ar
    15    15    16   ar
    16    16    17   ar
    17    12    17   ar
    18     9    18    1
    19    18    19    2
    20    18    20   am
    21    20    21    1
    22    21    22    1
    23    21    23    1
    24    23    24    1
    25    21    25    1
    26    25    26    2
    27    25    27   am
    28    28    30    1
    29    30    31    2
    30    31    32    1
    31    32    33    2
    32    32    34    1
    33    28    35    1
    34    36    38    1
    35    38    39    1
    36    39    40    1
    37    40    41   am
    38    36    41    1
    39    41    42    2
    40    36    37    1
    41    36    35    1
    42    28    29    1
    43    28    27    1
    44     1    43    1
    45     1    44    1
    46     1    45    1
    47     3    46    1
    48     3    47    1
    49     3    48    1
    50     4    49    1
    51     4    50    1
    52     4    51    1
    53     8    52    1
    54    11    53    1
    55    11    54    1
    56    13    55    1
    57    14    56    1
    58    15    57    1
    59    16    58    1
    60    17    59    1
    61    20    60    1
    62    23    61    1
    63    23    62    1
    64    24    63    1
    65    27    64    1
    66    30    65    1
    67    31    66    1
    68    34    67    1
    69    35    68    1
    70    35    69    1
    71    38    70    1
    72    38    71    1
    73    39    72    1
    74    39    73    1
    75    40    74    1
@<TRIPOS>MOLECULE
*****
 69 70 0 0 0
SMALL
GASTEIGER

@<TRIPOS>ATOM
      1 C           3.9600   -1.7873  -11.0180 C.3     1  LIG1       -0.0306
      2 C           2.8662   -1.1893  -10.1460 C.3     1  LIG1        0.0900
      3 O           3.1995   -1.0814   -8.7544 O.3     1  LIG1       -0.4618
      4 C           3.5229   -2.2193   -8.1093 C.2     1  LIG1        0.3317
      5 O           3.7356   -3.3229   -8.6042 O.2     1  LIG1       -0.2456
      6 C           3.5415   -1.9460   -6.6705 C.2     1  LIG1        0.0203
      7 C           3.6815   -2.9908   -5.8433 C.2     1  LIG1       -0.0572
      8 C           3.6872   -2.8799   -4.3580 C.3     1  LIG1        0.0427
      9 H           3.0044   -2.0847   -4.0338 H       1  LIG1        0.0543
     10 C           5.0980   -2.6591   -3.7943 C.3     1  LIG1       -0.0197
     11 C           5.8054   -1.3439   -4.1550 C.3     1  LIG1        0.0389
     12 H           5.9201   -1.2215   -5.2384 H       1  LIG1        0.0395
     13 C           7.2054   -1.2974   -3.5118 C.3     1  LIG1       -0.0262
     14 C           7.1534   -0.2003   -2.4650 C.3     1  LIG1        0.0123
     15 N           6.0130    0.5821   -2.8084 N.am    1  LIG1       -0.3151
     16 C           5.1316   -0.0862   -3.6324 C.2     1  LIG1        0.2162
     17 O           4.0218    0.3125   -3.9140 O.2     1  LIG1       -0.2755
     18 N           3.1512   -4.1448   -3.8811 N.am    1  LIG1       -0.3075
     19 C           2.5264   -4.2406   -2.6638 C.2     1  LIG1        0.2342
     20 O           2.4560   -3.2521   -1.9276 O.2     1  LIG1       -0.2738
     21 C           1.9440   -5.6423   -2.3144 C.3     1  LIG1        0.1064
     22 H           1.3618   -5.9889   -3.1746 H       1  LIG1        0.0599
     23 C           1.0299   -5.6158   -1.0543 C.3     1  LIG1       -0.0005
     24 C          -0.1677   -4.6915   -1.1369 C.ar    1  LIG1       -0.0451
     25 C          -1.3897   -5.1144   -1.6698 C.ar    1  LIG1       -0.0585
     26 C          -2.4335   -4.1988   -1.8486 C.ar    1  LIG1       -0.0615
     27 C          -2.2566   -2.8523   -1.5283 C.ar    1  LIG1       -0.0617
     28 C          -1.0566   -2.4284   -0.9730 C.ar    1  LIG1       -0.0615
     29 C          -0.0440   -3.3533   -0.7322 C.ar    1  LIG1       -0.0585
     30 N           3.0624   -6.5834   -2.0865 N.am    1  LIG1       -0.2695
     31 C           3.7965   -7.1177   -3.1194 C.2     1  LIG1        0.4014
     32 O           3.7175   -6.7778   -4.2661 O.2     1  LIG1       -0.2264
     33 O           4.6243   -8.0903   -2.5951 O.3     1  LIG1       -0.4447
     34 C           5.4423   -8.8641   -3.5153 C.3     1  LIG1        0.1068
     35 C           4.5342   -9.7774   -4.3387 C.3     1  LIG1       -0.0253
     36 C           6.3582   -8.0092   -4.4077 C.3     1  LIG1       -0.0253
     37 C           6.3490   -9.7371   -2.6163 C.3     1  LIG1       -0.0253
     38 H           3.6687   -1.7499  -12.0726 H       1  LIG1        0.0262
     39 H           4.1584   -2.8372  -10.7824 H       1  LIG1        0.0262
     40 H           4.8996   -1.2449  -10.8817 H       1  LIG1        0.0262
     41 H           1.9213   -1.7349  -10.2459 H       1  LIG1        0.0695
     42 H           2.6816   -0.1644  -10.4845 H       1  LIG1        0.0695
     43 H           3.4253   -0.9247   -6.3240 H       1  LIG1        0.0686
     44 H           3.7502   -3.9953   -6.2621 H       1  LIG1        0.0593
     45 H           5.7294   -3.4965   -4.1310 H       1  LIG1        0.0293
     46 H           5.0508   -2.7429   -2.7024 H       1  LIG1        0.0293
     47 H           7.9584   -1.0593   -4.2725 H       1  LIG1        0.0288
     48 H           7.4992   -2.2586   -3.0732 H       1  LIG1        0.0288
     49 H           8.0492    0.4284   -2.4624 H       1  LIG1        0.0462
     50 H           6.9932   -0.6043   -1.4618 H       1  LIG1        0.0462
     51 H           5.6909    1.3935   -2.2936 H       1  LIG1        0.1487
     52 H           3.4951   -5.0176   -4.3045 H       1  LIG1        0.1493
     53 H           1.6244   -5.3542   -0.1692 H       1  LIG1        0.0336
     54 H           0.6659   -6.6341   -0.8611 H       1  LIG1        0.0336
     55 H          -1.5404   -6.1506   -1.9624 H       1  LIG1        0.0620
     56 H          -3.3809   -4.5290   -2.2665 H       1  LIG1        0.0618
     57 H          -3.0473   -2.1313   -1.7159 H       1  LIG1        0.0618
     58 H          -0.8856   -1.3780   -0.7523 H       1  LIG1        0.0618
     59 H           0.8809   -2.9955   -0.2825 H       1  LIG1        0.0620
     60 H           3.0885   -7.1110   -1.2307 H       1  LIG1        0.1528
     61 H           4.0254   -9.2010   -5.1168 H       1  LIG1        0.0268
     62 H           3.7538  -10.2349   -3.7145 H       1  LIG1        0.0268
     63 H           5.0937  -10.5778   -4.8318 H       1  LIG1        0.0268
     64 H           5.8017   -7.4869   -5.1927 H       1  LIG1        0.0268
     65 H           7.1089   -8.6204   -4.9232 H       1  LIG1        0.0268
     66 H           6.8805   -7.2404   -3.8272 H       1  LIG1        0.0268
     67 H           5.7667  -10.4719   -2.0489 H       1  LIG1        0.0268
     68 H           6.8807   -9.1230   -1.8815 H       1  LIG1        0.0268
     69 H           7.0972  -10.2792   -3.2085 H       1  LIG1        0.0268
@<TRIPOS>BOND
     1     1     2    1
     2     2     3    1
     3     3     4    1
     4     4     5    2
     5     4     6    1
     6     6     7    2
     7     8    10    1
     8    11    13    1
     9    13    14    1
    10    14    15    1
    11    15    16   am
    12    11    16    1
    13    16    17    2
    14     8    18    1
    15    18    19   am
    16    19    20    2
    17    21    23    1
    18    23    24    1
    19    24    25   ar
    20    25    26   ar
    21    26    27   ar
    22    27    28   ar
    23    28    29   ar
    24    24    29   ar
    25    21    30    1
    26    30    31   am
    27    31    32    2
    28    31    33    1
    29    33    34    1
    30    34    35    1
    31    34    36    1
    32    34    37    1
    33    11    12    1
    34    11    10    1
    35     8     9    1
    36     8     7    1
    37    21    22    1
    38    21    19    1
    39     1    38    1
    40     1    39    1
    41     1    40    1
    42     2    41    1
    43     2    42    1
    44     6    43    1
    45     7    44    1
    46    10    45    1
    47    10    46    1
    48    13    47    1
    49    13    48    1
    50    14    49    1
    51    14    50    1
    52    15    51    1
    53    18    52    1
    54    23    53    1
    55    23    54    1
    56    25    55    1
    57    26    56    1
    58    27    57    1
    59    28    58    1
    60    29    59    1
    61    30    60    1
    62    35    61    1
    63    35    62    1
    64    35    63    1
    65    36    64    1
    66    36    65    1
    67    36    66    1
    68    37    67    1
    69    37    68    1
    70    37    69    1
@<TRIPOS>MOLECULE
*****
 73 74 0 0 0
SMALL
GASTEIGER

@<TRIPOS>ATOM
      1 C           4.7885    0.1297    6.1754 C.3     1  LIG1       -0.0626
      2 C           5.7889    0.3717    5.0247 C.3     1  LIG1       -0.0446
      3 C           6.2298   -0.9921    4.4962 C.3     1  LIG1       -0.0626
      4 C           5.1306    1.2825    3.9549 C.3     1  LIG1       -0.0235
      5 C           5.8940    1.7316    2.6784 C.3     1  LIG1        0.1027
      6 H           5.1256    2.2502    2.0893 H       1  LIG1        0.0596
      7 N           6.3504    0.6178    1.8605 N.am    1  LIG1       -0.2698
      8 C           5.7922    0.3070    0.6715 C.2     1  LIG1        0.4012
      9 O           4.9729    1.0366    0.0971 O.2     1  LIG1       -0.2265
     10 O           6.1609   -0.9103    0.2373 O.3     1  LIG1       -0.4456
     11 C           5.4950   -1.3491   -0.9662 C.3     1  LIG1        0.1191
     12 C           4.0812   -1.8609   -0.7459 C.ar    1  LIG1       -0.0103
     13 C           3.4858   -1.8504    0.5251 C.ar    1  LIG1       -0.0554
     14 C           2.1936   -2.3286    0.7251 C.ar    1  LIG1       -0.0614
     15 C           1.4706   -2.8363   -0.3471 C.ar    1  LIG1       -0.0617
     16 C           2.0341   -2.8445   -1.6226 C.ar    1  LIG1       -0.0614
     17 C           3.3296   -2.3546   -1.8251 C.ar    1  LIG1       -0.0554
     18 C           6.9690    2.8276    2.9323 C.2     1  LIG1        0.2338
     19 O           7.7485    2.7601    3.8801 O.2     1  LIG1       -0.2738
     20 N           7.0252    3.8314    1.9665 N.am    1  LIG1       -0.3080
     21 C           7.9486    4.9979    1.9577 C.3     1  LIG1        0.0583
     22 H           8.6303    4.9039    2.7950 H       1  LIG1        0.0529
     23 C           8.7564    5.0121    0.6238 C.3     1  LIG1       -0.0205
     24 C           9.8831    3.9680    0.5252 C.3     1  LIG1        0.0387
     25 C          10.9424    4.1443    1.6257 C.3     1  LIG1       -0.0262
     26 C          10.5545    3.1471    2.6973 C.3     1  LIG1        0.0123
     27 N           9.9031    2.1094    1.9587 N.am    1  LIG1       -0.3151
     28 C           9.4201    2.5423    0.7407 C.2     1  LIG1        0.2162
     29 O           8.7020    1.8911   -0.0014 O.2     1  LIG1       -0.2755
     30 C           7.2583    6.3803    2.1902 C.3     1  LIG1        0.1490
     31 O           6.2440    6.5443    1.2067 O.3     1  LIG1       -0.3807
     32 C           6.8998    6.5941    3.7138 C.2     1  LIG1        0.2437
     33 O           5.7749    6.3527    4.1476 O.2     1  LIG1       -0.2729
     34 N           7.9164    7.1350    4.5094 N.am    1  LIG1       -0.3108
     35 C           7.7951    7.3210    5.9705 C.3     1  LIG1        0.0176
     36 C           8.2913    6.0817    6.7241 C.3     1  LIG1       -0.0469
     37 C           8.5561    8.5632    6.4622 C.3     1  LIG1       -0.0469
     38 H           5.1686   -0.6120    6.8885 H       1  LIG1        0.0232
     39 H           3.8279   -0.2421    5.7992 H       1  LIG1        0.0232
     40 H           4.5976    1.0518    6.7339 H       1  LIG1        0.0232
     41 H           6.6626    0.8779    5.4505 H       1  LIG1        0.0296
     42 H           5.4127   -1.4979    3.9711 H       1  LIG1        0.0232
     43 H           6.5583   -1.6451    5.3131 H       1  LIG1        0.0232
     44 H           7.0848   -0.9029    3.8269 H       1  LIG1        0.0232
     45 H           4.7980    2.1963    4.4667 H       1  LIG1        0.0290
     46 H           4.2151    0.7757    3.6183 H       1  LIG1        0.0290
     47 H           7.1494    0.0463    2.1153 H       1  LIG1        0.1528
     48 H           6.0968   -2.1629   -1.3862 H       1  LIG1        0.0749
     49 H           5.5060   -0.5312   -1.6982 H       1  LIG1        0.0749
     50 H           4.0179   -1.4590    1.3866 H       1  LIG1        0.0621
     51 H           1.7647   -2.3041    1.7227 H       1  LIG1        0.0618
     52 H           0.4697   -3.2251   -0.1851 H       1  LIG1        0.0618
     53 H           1.4623   -3.2375   -2.4595 H       1  LIG1        0.0618
     54 H           3.7426   -2.3649   -2.8321 H       1  LIG1        0.0621
     55 H           6.4835    3.6767    1.1183 H       1  LIG1        0.1491
     56 H           9.2330    5.9954    0.4982 H       1  LIG1        0.0291
     57 H           8.0792    4.9022   -0.2357 H       1  LIG1        0.0291
     58 H          10.3637    4.0346   -0.4589 H       1  LIG1        0.0395
     59 H          11.0053    5.1701    2.0018 H       1  LIG1        0.0288
     60 H          11.9264    3.8718    1.2291 H       1  LIG1        0.0288
     61 H           9.8714    3.5769    3.4285 H       1  LIG1        0.0462
     62 H          11.3980    2.7443    3.2564 H       1  LIG1        0.0462
     63 H           9.4963    1.2906    2.3923 H       1  LIG1        0.1487
     64 H           7.9899    7.1714    1.9747 H       1  LIG1        0.0709
     65 H           5.4821    6.9766    1.6307 H       1  LIG1        0.2105
     66 H           8.8146    7.3402    4.0942 H       1  LIG1        0.1490
     67 H           6.7348    7.4657    6.2064 H       1  LIG1        0.0493
     68 H           9.3862    6.0109    6.7126 H       1  LIG1        0.0247
     69 H           7.8992    5.1611    6.2819 H       1  LIG1        0.0247
     70 H           7.9791    6.1141    7.7748 H       1  LIG1        0.0247
     71 H           9.6282    8.3713    6.5949 H       1  LIG1        0.0247
     72 H           8.1690    8.8875    7.4372 H       1  LIG1        0.0247
     73 H           8.4535    9.4031    5.7684 H       1  LIG1        0.0247
@<TRIPOS>BOND
     1     1     2    1
     2     2     3    1
     3     2     4    1
     4     5     7    1
     5     7     8   am
     6     8     9    2
     7     8    10    1
     8    10    11    1
     9    11    12    1
    10    12    13   ar
    11    13    14   ar
    12    14    15   ar
    13    15    16   ar
    14    16    17   ar
    15    12    17   ar
    16     5    18    1
    17    18    19    2
    18    18    20   am
    19    20    21    1
    20    21    22    1
    21    21    23    1
    22    23    24    1
    23    24    25    1
    24    25    26    1
    25    26    27    1
    26    27    28   am
    27    24    28    1
    28    28    29    2
    29    21    30    1
    30    30    31    1
    31    30    32    1
    32    32    33    2
    33    32    34   am
    34    34    35    1
    35    35    36    1
    36    35    37    1
    37     5     6    1
    38     5     4    1
    39     1    38    1
    40     1    39    1
    41     1    40    1
    42     2    41    1
    43     3    42    1
    44     3    43    1
    45     3    44    1
    46     4    45    1
    47     4    46    1
    48     7    47    1
    49    11    48    1
    50    11    49    1
    51    13    50    1
    52    14    51    1
    53    15    52    1
    54    16    53    1
    55    17    54    1
    56    20    55    1
    57    23    56    1
    58    23    57    1
    59    24    58    1
    60    25    59    1
    61    25    60    1
    62    26    61    1
    63    26    62    1
    64    27    63    1
    65    30    64    1
    66    31    65    1
    67    34    66    1
    68    35    67    1
    69    36    68    1
    70    36    69    1
    71    36    70    1
    72    37    71    1
    73    37    72    1
    74    37    73    1
@<TRIPOS>MOLECULE
*****
 71 73 0 0 0
SMALL
GASTEIGER

@<TRIPOS>ATOM
      1 C           5.6780    5.9404    0.7725 C.3     1  LIG1       -0.0626
      2 C           4.2106    5.6497    0.4682 C.3     1  LIG1       -0.0446
      3 C           3.6535    6.5323   -0.6340 C.3     1  LIG1       -0.0626
      4 C           3.8088    4.1545    0.3248 C.3     1  LIG1       -0.0235
      5 C           4.6000    3.1163   -0.5039 C.3     1  LIG1        0.1027
      6 H           4.5957    3.4144   -1.5663 H       1  LIG1        0.0596
      7 N           3.9828    1.7437   -0.4682 N.am    1  LIG1       -0.2698
      8 C           3.2799    1.0904    0.5512 C.2     1  LIG1        0.4012
      9 O           2.6133    0.0101    0.3731 O.2     1  LIG1       -0.2265
     10 O           3.3597    1.7441    1.6702 O.3     1  LIG1       -0.4456
     11 C           2.3144    1.6591    2.6659 C.3     1  LIG1        0.1191
     12 C           2.4229    2.8654    3.5817 C.ar    1  LIG1       -0.0103
     13 C           2.9698    2.7722    4.8566 C.ar    1  LIG1       -0.0554
     14 C           2.9477    3.8950    5.7044 C.ar    1  LIG1       -0.0614
     15 C           2.5935    5.1652    5.2412 C.ar    1  LIG1       -0.0617
     16 C           2.3045    5.3111    3.8991 C.ar    1  LIG1       -0.0614
     17 C           2.1220    4.1639    3.1149 C.ar    1  LIG1       -0.0554
     18 C           6.0129    3.0110    0.0260 C.2     1  LIG1        0.2338
     19 O           6.2226    3.3297    1.2194 O.2     1  LIG1       -0.2738
     20 N           7.0183    2.5279   -0.7789 N.am    1  LIG1       -0.3080
     21 C           8.5026    2.6489   -0.4282 C.3     1  LIG1        0.0583
     22 H           8.9040    1.7652   -0.9597 H       1  LIG1        0.0529
     23 C           9.0507    3.8871   -1.1818 C.3     1  LIG1       -0.0205
     24 C          10.5624    4.0448   -1.0643 C.3     1  LIG1        0.0387
     25 C          11.4166    2.9094   -1.6516 C.3     1  LIG1       -0.0262
     26 C          12.1031    3.4757   -2.8809 C.3     1  LIG1        0.0123
     27 N          11.9773    4.8892   -2.7463 N.am    1  LIG1       -0.3151
     28 C          11.0787    5.2758   -1.7778 C.2     1  LIG1        0.2162
     29 O          10.7703    6.4282   -1.5391 O.2     1  LIG1       -0.2755
     30 C           8.7929    2.4296    1.1502 C.3     1  LIG1        0.1490
     31 O           8.4446    1.0292    1.2832 O.3     1  LIG1       -0.3807
     32 C          10.0649    2.8702    2.1117 C.2     1  LIG1        0.2437
     33 O          11.1476    2.2742    2.0611 O.2     1  LIG1       -0.2729
     34 N           9.7589    3.8481    3.1211 N.am    1  LIG1       -0.3103
     35 C          10.6527    4.5139    4.0791 C.3     1  LIG1        0.0233
     36 C          10.2732    5.8802    4.6602 C.3     1  LIG1       -0.0328
     37 C          10.3362    4.7029    5.5622 C.3     1  LIG1       -0.0328
     38 H           5.8765    7.0148    0.8721 H       1  LIG1        0.0232
     39 H           6.3435    5.5462    0.0019 H       1  LIG1        0.0232
     40 H           5.9405    5.5085    1.7445 H       1  LIG1        0.0232
     41 H           3.6910    5.9841    1.3783 H       1  LIG1        0.0296
     42 H           2.7734    7.0634   -0.2482 H       1  LIG1        0.0232
     43 H           3.3448    5.9510   -1.5059 H       1  LIG1        0.0232
     44 H           4.3677    7.2998   -0.9440 H       1  LIG1        0.0232
     45 H           2.7488    4.0929    0.0553 H       1  LIG1        0.0290
     46 H           3.9006    3.8318    1.3581 H       1  LIG1        0.0290
     47 H           4.1057    1.1616   -1.2799 H       1  LIG1        0.1528
     48 H           2.3752    0.7056    3.2193 H       1  LIG1        0.0749
     49 H           1.3347    1.6736    2.1479 H       1  LIG1        0.0749
     50 H           3.3453    1.7695    5.2267 H       1  LIG1        0.0621
     51 H           3.1982    3.7655    6.7632 H       1  LIG1        0.0618
     52 H           2.6079    6.0465    5.8795 H       1  LIG1        0.0618
     53 H           2.2673    6.3171    3.4719 H       1  LIG1        0.0618
     54 H           1.8606    4.2893    2.0670 H       1  LIG1        0.0621
     55 H           6.7351    1.6765   -1.2807 H       1  LIG1        0.1491
     56 H           8.5410    4.7939   -0.8322 H       1  LIG1        0.0291
     57 H           8.7813    3.8421   -2.2548 H       1  LIG1        0.0291
     58 H          10.8088    4.1697   -0.0094 H       1  LIG1        0.0395
     59 H          10.8763    1.9885   -1.8901 H       1  LIG1        0.0288
     60 H          12.1813    2.6446   -0.9117 H       1  LIG1        0.0288
     61 H          11.6177    3.1670   -3.8124 H       1  LIG1        0.0462
     62 H          13.1633    3.2080   -2.9204 H       1  LIG1        0.0462
     63 H          12.4329    5.5774   -3.3323 H       1  LIG1        0.1487
     64 H           8.0515    2.9900    1.6879 H       1  LIG1        0.0709
     65 H           8.6944    0.7268    2.1694 H       1  LIG1        0.2105
     66 H           8.7780    3.9018    3.3845 H       1  LIG1        0.1490
     67 H          11.7134    4.3783    3.8688 H       1  LIG1        0.0498
     68 H           9.2738    6.3081    4.6155 H       1  LIG1        0.0284
     69 H          11.0426    6.6293    4.8638 H       1  LIG1        0.0284
     70 H           9.3963    4.3718    5.9931 H       1  LIG1        0.0284
     71 H          11.1148    4.8085    6.3186 H       1  LIG1        0.0284
@<TRIPOS>BOND
     1     1     2    1
     2     2     3    1
     3     2     4    1
     4     5     7    1
     5     7     8   am
     6     8     9    2
     7     8    10    1
     8    10    11    1
     9    11    12    1
    10    12    13   ar
    11    13    14   ar
    12    14    15   ar
    13    15    16   ar
    14    16    17   ar
    15    12    17   ar
    16     5    18    1
    17    18    19    2
    18    18    20   am
    19    20    21    1
    20    21    22    1
    21    21    23    1
    22    23    24    1
    23    24    25    1
    24    25    26    1
    25    26    27    1
    26    27    28   am
    27    24    28    1
    28    28    29    2
    29    21    30    1
    30    30    31    1
    31    30    32    1
    32    32    33    2
    33    32    34   am
    34    34    35    1
    35    35    36    1
    36    36    37    1
    37    35    37    1
    38     5     6    1
    39     5     4    1
    40     1    38    1
    41     1    39    1
    42     1    40    1
    43     2    41    1
    44     3    42    1
    45     3    43    1
    46     3    44    1
    47     4    45    1
    48     4    46    1
    49     7    47    1
    50    11    48    1
    51    11    49    1
    52    13    50    1
    53    14    51    1
    54    15    52    1
    55    16    53    1
    56    17    54    1
    57    20    55    1
    58    23    56    1
    59    23    57    1
    60    24    58    1
    61    25    59    1
    62    25    60    1
    63    26    61    1
    64    26    62    1
    65    27    63    1
    66    30    64    1
    67    31    65    1
    68    34    66    1
    69    35    67    1
    70    36    68    1
    71    36    69    1
    72    37    70    1
    73    37    71    1
@<TRIPOS>MOLECULE
*****
 76 77 0 0 0
SMALL
GASTEIGER

@<TRIPOS>ATOM
      1 C          13.1890    5.0687    4.9778 C.3     1  LIG1       -0.0652
      2 C          14.0660    6.0453    4.2102 C.3     1  LIG1       -0.0545
      3 C          13.3371    6.5735    2.9782 C.3     1  LIG1       -0.0376
      4 C          14.0654    7.7429    2.3094 C.3     1  LIG1        0.0117
      5 N          14.2317    8.9387    3.1261 N.am    1  LIG1       -0.3131
      6 C          13.3490    9.8607    3.6009 C.2     1  LIG1        0.2435
      7 O          13.7452   10.5779    4.5275 O.2     1  LIG1       -0.2729
      8 C          11.8895   10.0095    3.0932 C.3     1  LIG1        0.1490
      9 O          11.1869    8.7615    3.1692 O.3     1  LIG1       -0.3807
     10 C          11.6940   10.6109    1.6568 C.3     1  LIG1        0.0583
     11 H          12.3458   10.0530    0.9813 H       1  LIG1        0.0529
     12 C          12.0525   12.1470    1.5010 C.3     1  LIG1       -0.0205
     13 C          12.1342   12.6610    0.0231 C.3     1  LIG1        0.0387
     14 C          10.8007   12.6703   -0.7318 C.3     1  LIG1       -0.0262
     15 C          10.2832   14.0897   -0.7171 C.3     1  LIG1        0.0123
     16 N          11.4492   14.8714   -0.5667 N.am    1  LIG1       -0.3151
     17 C          12.5682   14.1271   -0.2036 C.2     1  LIG1        0.2162
     18 O          13.6736   14.5842   -0.1446 O.2     1  LIG1       -0.2755
     19 N          10.2952   10.3440    1.2241 N.am    1  LIG1       -0.3080
     20 C           9.9785    9.7534    0.0105 C.2     1  LIG1        0.2338
     21 O          10.8408    9.4139   -0.7993 O.2     1  LIG1       -0.2738
     22 C           8.4639    9.6570   -0.3164 C.3     1  LIG1        0.1027
     23 H           7.9295   10.4100    0.2697 H       1  LIG1        0.0596
     24 C           7.8552    8.2813    0.0065 C.3     1  LIG1       -0.0235
     25 C           7.9680    7.8432    1.4867 C.3     1  LIG1       -0.0446
     26 C           7.3061    8.8133    2.4697 C.3     1  LIG1       -0.0626
     27 C           7.3617    6.4486    1.6839 C.3     1  LIG1       -0.0626
     28 N           8.2782   10.0120   -1.7324 N.am    1  LIG1       -0.2698
     29 C           7.5899   11.1297   -2.1068 C.2     1  LIG1        0.4012
     30 O           7.0127   11.8753   -1.3204 O.2     1  LIG1       -0.2265
     31 O           7.5483   11.2520   -3.4554 O.3     1  LIG1       -0.4456
     32 C           6.3787   11.9388   -3.9412 C.3     1  LIG1        0.1191
     33 C           6.6478   13.2434   -4.6564 C.ar    1  LIG1       -0.0103
     34 C           5.6527   14.2394   -4.6665 C.ar    1  LIG1       -0.0554
     35 C           5.8742   15.4711   -5.2860 C.ar    1  LIG1       -0.0614
     36 C           7.0840   15.7155   -5.9279 C.ar    1  LIG1       -0.0617
     37 C           8.0581   14.7183   -5.9725 C.ar    1  LIG1       -0.0614
     38 C           7.8389   13.4854   -5.3484 C.ar    1  LIG1       -0.0554
     39 H          13.7595    4.6006    5.7847 H       1  LIG1        0.0230
     40 H          12.8016    4.2816    4.3230 H       1  LIG1        0.0230
     41 H          12.3351    5.5907    5.4236 H       1  LIG1        0.0230
     42 H          14.9923    5.5487    3.9011 H       1  LIG1        0.0263
     43 H          14.3393    6.8693    4.8775 H       1  LIG1        0.0263
     44 H          12.3222    6.8312    3.2598 H       1  LIG1        0.0280
     45 H          13.2218    5.7603    2.2502 H       1  LIG1        0.0280
     46 H          13.5722    8.0295    1.3805 H       1  LIG1        0.0462
     47 H          15.0811    7.3985    2.0729 H       1  LIG1        0.0462
     48 H          15.1659    9.0918    3.4961 H       1  LIG1        0.1488
     49 H          11.3811   10.6534    3.8226 H       1  LIG1        0.0709
     50 H          11.4693    8.3379    3.9995 H       1  LIG1        0.2105
     51 H          13.0267   12.3181    1.9807 H       1  LIG1        0.0291
     52 H          11.3317   12.7616    2.0556 H       1  LIG1        0.0291
     53 H          12.8672   12.0403   -0.5141 H       1  LIG1        0.0395
     54 H          10.0258   12.0558   -0.3067 H       1  LIG1        0.0288
     55 H          10.9768   12.3304   -1.7594 H       1  LIG1        0.0288
     56 H           9.6226   14.2911    0.1308 H       1  LIG1        0.0462
     57 H           9.7629   14.3362   -1.6498 H       1  LIG1        0.0462
     58 H          11.5202   15.8652   -0.7421 H       1  LIG1        0.1487
     59 H           9.5729   10.4286    1.9281 H       1  LIG1        0.1491
     60 H           8.3222    7.5154   -0.6275 H       1  LIG1        0.0290
     61 H           6.7929    8.2955   -0.2798 H       1  LIG1        0.0290
     62 H           9.0299    7.7716    1.7464 H       1  LIG1        0.0296
     63 H           6.2500    8.9711    2.2326 H       1  LIG1        0.0232
     64 H           7.7927    9.7891    2.4808 H       1  LIG1        0.0232
     65 H           7.3724    8.4254    3.4930 H       1  LIG1        0.0232
     66 H           6.3793    6.3636    1.2076 H       1  LIG1        0.0232
     67 H           7.2372    6.2179    2.7484 H       1  LIG1        0.0232
     68 H           8.0161    5.6812    1.2585 H       1  LIG1        0.0232
     69 H           8.8327    9.5510   -2.4471 H       1  LIG1        0.1528
     70 H           5.6620   12.1220   -3.1318 H       1  LIG1        0.0749
     71 H           5.8892   11.2477   -4.6363 H       1  LIG1        0.0749
     72 H           4.6968   14.0728   -4.1727 H       1  LIG1        0.0621
     73 H           5.1065   16.2406   -5.2556 H       1  LIG1        0.0618
     74 H           7.2671   16.6809   -6.3930 H       1  LIG1        0.0618
     75 H           8.9976   14.9051   -6.4865 H       1  LIG1        0.0618
     76 H           8.6115   12.7220   -5.3943 H       1  LIG1        0.0621
@<TRIPOS>BOND
     1     1     2    1
     2     2     3    1
     3     3     4    1
     4     4     5    1
     5     5     6   am
     6     6     7    2
     7     6     8    1
     8     8     9    1
     9    10    12    1
    10    12    13    1
    11    13    14    1
    12    14    15    1
    13    15    16    1
    14    16    17   am
    15    13    17    1
    16    17    18    2
    17    10    19    1
    18    19    20   am
    19    20    21    2
    20    22    24    1
    21    24    25    1
    22    25    26    1
    23    25    27    1
    24    22    28    1
    25    28    29   am
    26    29    30    2
    27    29    31    1
    28    31    32    1
    29    32    33    1
    30    33    34   ar
    31    34    35   ar
    32    35    36   ar
    33    36    37   ar
    34    37    38   ar
    35    33    38   ar
    36    10    11    1
    37    10     8    1
    38    22    23    1
    39    22    20    1
    40     1    39    1
    41     1    40    1
    42     1    41    1
    43     2    42    1
    44     2    43    1
    45     3    44    1
    46     3    45    1
    47     4    46    1
    48     4    47    1
    49     5    48    1
    50     8    49    1
    51     9    50    1
    52    12    51    1
    53    12    52    1
    54    13    53    1
    55    14    54    1
    56    14    55    1
    57    15    56    1
    58    15    57    1
    59    16    58    1
    60    19    59    1
    61    24    60    1
    62    24    61    1
    63    25    62    1
    64    26    63    1
    65    26    64    1
    66    26    65    1
    67    27    66    1
    68    27    67    1
    69    27    68    1
    70    28    69    1
    71    32    70    1
    72    32    71    1
    73    34    72    1
    74    35    73    1
    75    36    74    1
    76    37    75    1
    77    38    76    1
@<TRIPOS>MOLECULE
*****
 76 77 0 0 0
SMALL
GASTEIGER

@<TRIPOS>ATOM
      1 C          11.0626  -14.5152    3.2821 C.3     1  LIG1       -0.0306
      2 C          10.0300  -14.0234    2.2865 C.3     1  LIG1        0.0897
      3 O          10.2143  -12.6256    2.0674 O.3     1  LIG1       -0.4638
      4 C          11.2225  -12.3384    1.1943 C.2     1  LIG1        0.3244
      5 O          11.9435  -13.1550    0.6350 O.2     1  LIG1       -0.2491
      6 C          11.3143  -10.8435    1.0243 C.3     1  LIG1        0.1091
      7 N          12.4650  -10.4750    0.2133 N.am    1  LIG1       -0.3027
      8 C          13.1584   -9.3031    0.2301 C.2     1  LIG1        0.2439
      9 O          13.9658   -9.0778   -0.6748 O.2     1  LIG1       -0.2729
     10 C          12.9503   -8.2834    1.3769 C.3     1  LIG1        0.1490
     11 O          12.6524   -8.8709    2.6487 O.3     1  LIG1       -0.3807
     12 C          11.8780   -7.2160    1.0124 C.3     1  LIG1        0.0583
     13 H          10.9349   -7.7411    0.8132 H       1  LIG1        0.0529
     14 C          12.2908   -6.3814   -0.2245 C.3     1  LIG1       -0.0205
     15 C          11.3271   -5.2959   -0.7149 C.3     1  LIG1        0.0387
     16 C          11.8547   -4.5027   -1.9252 C.3     1  LIG1       -0.0262
     17 C          10.5969   -3.8386   -2.4696 C.3     1  LIG1        0.0123
     18 N           9.5597   -4.7724   -2.1406 N.am    1  LIG1       -0.3151
     19 C          10.0197   -5.7827   -1.3101 C.2     1  LIG1        0.2162
     20 O           9.4661   -6.8625   -1.1485 O.2     1  LIG1       -0.2755
     21 N          11.6614   -6.3319    2.1629 N.am    1  LIG1       -0.3080
     22 C          10.4141   -5.8302    2.4353 C.2     1  LIG1        0.2338
     23 O           9.4837   -5.9836    1.6536 O.2     1  LIG1       -0.2738
     24 C          10.2550   -5.1916    3.8174 C.3     1  LIG1        0.1027
     25 H          10.3789   -5.9910    4.5557 H       1  LIG1        0.0596
     26 C           8.8593   -4.5426    4.0211 C.3     1  LIG1       -0.0235
     27 C           7.6353   -5.4759    3.8090 C.3     1  LIG1       -0.0446
     28 C           7.6757   -6.6985    4.7212 C.3     1  LIG1       -0.0626
     29 C           6.3014   -4.7494    3.9960 C.3     1  LIG1       -0.0626
     30 N          11.3275   -4.2104    4.0189 N.am    1  LIG1       -0.2698
     31 C          12.2449   -4.3344    5.0152 C.2     1  LIG1        0.4012
     32 O          12.5564   -5.3801    5.5203 O.2     1  LIG1       -0.2265
     33 O          12.6977   -3.0956    5.3841 O.3     1  LIG1       -0.4456
     34 C          13.3166   -3.0850    6.6828 C.3     1  LIG1        0.1191
     35 C          12.2549   -3.0552    7.7626 C.ar    1  LIG1       -0.0103
     36 C          11.7204   -4.2580    8.2516 C.ar    1  LIG1       -0.0554
     37 C          10.6669   -4.2568    9.1642 C.ar    1  LIG1       -0.0614
     38 C          10.1442   -3.0496    9.6165 C.ar    1  LIG1       -0.0617
     39 C          10.6782   -1.8456    9.1585 C.ar    1  LIG1       -0.0614
     40 C          11.7247   -1.8460    8.2314 C.ar    1  LIG1       -0.0554
     41 H          10.9636  -15.5898    3.4457 H       1  LIG1        0.0262
     42 H          10.9584  -13.9886    4.2365 H       1  LIG1        0.0262
     43 H          12.0780  -14.3088    2.9280 H       1  LIG1        0.0262
     44 H           9.0157  -14.1718    2.6710 H       1  LIG1        0.0694
     45 H          10.0931  -14.5593    1.3334 H       1  LIG1        0.0694
     46 H          11.3819  -10.4292    2.0223 H       1  LIG1        0.0577
     47 H          10.4107  -10.4806    0.5315 H       1  LIG1        0.0577
     48 H          12.7170  -11.1087   -0.5426 H       1  LIG1        0.1493
     49 H          13.9153   -7.7924    1.5370 H       1  LIG1        0.0709
     50 H          13.3768   -9.4864    2.8597 H       1  LIG1        0.2105
     51 H          12.4691   -7.0662   -1.0566 H       1  LIG1        0.0291
     52 H          13.2403   -5.8890    0.0201 H       1  LIG1        0.0291
     53 H          11.0991   -4.5829    0.0873 H       1  LIG1        0.0395
     54 H          12.2606   -5.1859   -2.6841 H       1  LIG1        0.0288
     55 H          12.6337   -3.7787   -1.6712 H       1  LIG1        0.0288
     56 H          10.6344   -3.7013   -3.5543 H       1  LIG1        0.0462
     57 H          10.3835   -2.8812   -1.9853 H       1  LIG1        0.0462
     58 H           8.6884   -4.8840   -2.6436 H       1  LIG1        0.1487
     59 H          12.4313   -6.0954    2.7811 H       1  LIG1        0.1491
     60 H           8.7681   -3.6783    3.3498 H       1  LIG1        0.0290
     61 H           8.8184   -4.1382    5.0418 H       1  LIG1        0.0290
     62 H           7.6108   -5.8305    2.7763 H       1  LIG1        0.0296
     63 H           7.7410   -6.3980    5.7715 H       1  LIG1        0.0232
     64 H           8.5283   -7.3425    4.4884 H       1  LIG1        0.0232
     65 H           6.7704   -7.3025    4.5962 H       1  LIG1        0.0232
     66 H           6.1584   -4.4255    5.0304 H       1  LIG1        0.0232
     67 H           5.4745   -5.4244    3.7391 H       1  LIG1        0.0232
     68 H           6.2230   -3.8792    3.3368 H       1  LIG1        0.0232
     69 H          11.3236   -3.3469    3.4882 H       1  LIG1        0.1528
     70 H          13.9394   -2.1807    6.7521 H       1  LIG1        0.0749
     71 H          14.0003   -3.9296    6.8132 H       1  LIG1        0.0749
     72 H          12.1031   -5.2141    7.8992 H       1  LIG1        0.0621
     73 H          10.2489   -5.2000    9.5060 H       1  LIG1        0.0618
     74 H           9.3148   -3.0485   10.3184 H       1  LIG1        0.0618
     75 H          10.2657   -0.9040    9.5119 H       1  LIG1        0.0618
     76 H          12.1093   -0.8959    7.8681 H       1  LIG1        0.0621
@<TRIPOS>BOND
     1     1     2    1
     2     2     3    1
     3     3     4    1
     4     4     5    2
     5     4     6    1
     6     6     7    1
     7     7     8   am
     8     8     9    2
     9     8    10    1
    10    10    11    1
    11    12    14    1
    12    14    15    1
    13    15    16    1
    14    16    17    1
    15    17    18    1
    16    18    19   am
    17    15    19    1
    18    19    20    2
    19    12    21    1
    20    21    22   am
    21    22    23    2
    22    24    26    1
    23    26    27    1
    24    27    28    1
    25    27    29    1
    26    24    30    1
    27    30    31   am
    28    31    32    2
    29    31    33    1
    30    33    34    1
    31    34    35    1
    32    35    36   ar
    33    36    37   ar
    34    37    38   ar
    35    38    39   ar
    36    39    40   ar
    37    35    40   ar
    38    12    13    1
    39    12    10    1
    40    24    25    1
    41    24    22    1
    42     1    41    1
    43     1    42    1
    44     1    43    1
    45     2    44    1
    46     2    45    1
    47     6    46    1
    48     6    47    1
    49     7    48    1
    50    10    49    1
    51    11    50    1
    52    14    51    1
    53    14    52    1
    54    15    53    1
    55    16    54    1
    56    16    55    1
    57    17    56    1
    58    17    57    1
    59    18    58    1
    60    21    59    1
    61    26    60    1
    62    26    61    1
    63    27    62    1
    64    28    63    1
    65    28    64    1
    66    28    65    1
    67    29    66    1
    68    29    67    1
    69    29    68    1
    70    30    69    1
    71    34    70    1
    72    34    71    1
    73    36    72    1
    74    37    73    1
    75    38    74    1
    76    39    75    1
    77    40    76    1
@<TRIPOS>MOLECULE
*****
 80 82 0 0 0
SMALL
GASTEIGER

@<TRIPOS>ATOM
      1 C           4.3276    2.9792   -4.1375 C.3     1  LIG1       -0.0626
      2 C           4.7644    2.2517   -2.8576 C.3     1  LIG1       -0.0446
      3 C           3.9241    2.7714   -1.6910 C.3     1  LIG1       -0.0626
      4 C           4.6652    0.7204   -3.0436 C.3     1  LIG1       -0.0235
      5 C           5.1095   -0.1280   -1.8326 C.3     1  LIG1        0.1027
      6 H           4.4676    0.0761   -0.9664 H       1  LIG1        0.0596
      7 N           6.5032    0.1041   -1.4775 N.am    1  LIG1       -0.2698
      8 C           6.9021    0.0946   -0.1823 C.2     1  LIG1        0.4012
      9 O           6.1628    0.2887    0.7886 O.2     1  LIG1       -0.2265
     10 O           8.2210   -0.1718   -0.1215 O.3     1  LIG1       -0.4456
     11 C           8.8340    0.1283    1.1406 C.3     1  LIG1        0.1191
     12 C           9.3133    1.5564    1.0647 C.ar    1  LIG1       -0.0103
     13 C           8.4813    2.5968    1.5029 C.ar    1  LIG1       -0.0554
     14 C           8.8457    3.9280    1.3040 C.ar    1  LIG1       -0.0614
     15 C          10.0385    4.2337    0.6528 C.ar    1  LIG1       -0.0617
     16 C          10.8828    3.2085    0.2292 C.ar    1  LIG1       -0.0614
     17 C          10.5284    1.8747    0.4426 C.ar    1  LIG1       -0.0554
     18 C           4.9538   -1.6396   -2.1599 C.2     1  LIG1        0.2338
     19 O           3.8553   -2.1065   -2.4370 O.2     1  LIG1       -0.2738
     20 N           6.1523   -2.3543   -2.2053 N.am    1  LIG1       -0.3080
     21 C           6.2696   -3.7936   -2.4944 C.3     1  LIG1        0.0583
     22 H           5.3093   -4.2570   -2.2611 H       1  LIG1        0.0529
     23 C           6.6284   -4.0175   -4.0032 C.3     1  LIG1       -0.0205
     24 C           5.5778   -3.5667   -5.0372 C.3     1  LIG1        0.0387
     25 C           5.9770   -3.8643   -6.5066 C.3     1  LIG1       -0.0262
     26 C           4.8572   -4.6965   -7.1162 C.3     1  LIG1        0.0123
     27 N           3.9565   -4.9521   -6.0500 N.am    1  LIG1       -0.3151
     28 C           4.2869   -4.3459   -4.8732 C.2     1  LIG1        0.2162
     29 O           3.6277   -4.4761   -3.8627 O.2     1  LIG1       -0.2755
     30 C           7.3484   -4.5363   -1.6093 C.3     1  LIG1        0.1490
     31 O           8.6480   -3.9548   -1.7486 O.3     1  LIG1       -0.3807
     32 C           6.8950   -4.7519   -0.1300 C.2     1  LIG1        0.2437
     33 O           6.1454   -3.9590    0.4424 O.2     1  LIG1       -0.2729
     34 N           7.3789   -5.8194    0.5998 N.am    1  LIG1       -0.3103
     35 C           8.3173   -6.8628    0.1805 C.3     1  LIG1        0.0232
     36 C           9.0977   -7.4742    1.3703 C.3     1  LIG1       -0.0345
     37 C           8.5122   -8.7519    1.9786 C.3     1  LIG1       -0.0514
     38 C           8.1415   -9.7595    0.9020 C.3     1  LIG1       -0.0529
     39 C           7.0912   -9.1434   -0.0017 C.3     1  LIG1       -0.0514
     40 C           7.6402   -7.9152   -0.7188 C.3     1  LIG1       -0.0345
     41 H           3.2958    2.7270   -4.4089 H       1  LIG1        0.0232
     42 H           4.9715    2.7172   -4.9828 H       1  LIG1        0.0232
     43 H           4.3766    4.0663   -4.0042 H       1  LIG1        0.0232
     44 H           5.8122    2.5096   -2.6625 H       1  LIG1        0.0296
     45 H           2.8528    2.6789   -1.9001 H       1  LIG1        0.0232
     46 H           4.1404    3.8314   -1.5144 H       1  LIG1        0.0232
     47 H           4.1410    2.2417   -0.7610 H       1  LIG1        0.0232
     48 H           5.2731    0.4355   -3.9128 H       1  LIG1        0.0290
     49 H           3.6291    0.4637   -3.3051 H       1  LIG1        0.0290
     50 H           7.2131   -0.1042   -2.1655 H       1  LIG1        0.1528
     51 H           9.6778   -0.5541    1.2904 H       1  LIG1        0.0749
     52 H           8.1556   -0.0318    1.9881 H       1  LIG1        0.0749
     53 H           7.5261    2.3720    1.9759 H       1  LIG1        0.0621
     54 H           8.1870    4.7243    1.6399 H       1  LIG1        0.0618
     55 H          10.3059    5.2711    0.4703 H       1  LIG1        0.0618
     56 H          11.8107    3.4490   -0.2829 H       1  LIG1        0.0618
     57 H          11.1949    1.0874    0.0984 H       1  LIG1        0.0621
     58 H           6.9200   -1.9181   -1.7231 H       1  LIG1        0.1491
     59 H           6.8023   -5.0920   -4.1489 H       1  LIG1        0.0291
     60 H           7.5815   -3.5164   -4.2255 H       1  LIG1        0.0291
     61 H           5.3732   -2.4951   -4.9424 H       1  LIG1        0.0395
     62 H           6.9336   -4.3921   -6.5952 H       1  LIG1        0.0288
     63 H           6.0872   -2.9309   -7.0733 H       1  LIG1        0.0288
     64 H           5.2128   -5.6544   -7.5073 H       1  LIG1        0.0462
     65 H           4.3160   -4.1697   -7.9078 H       1  LIG1        0.0462
     66 H           3.1105   -5.5026   -6.0943 H       1  LIG1        0.1487
     67 H           7.4465   -5.5342   -2.0403 H       1  LIG1        0.0709
     68 H           8.6084   -3.0283   -1.4629 H       1  LIG1        0.2105
     69 H           7.0045   -5.8568    1.5421 H       1  LIG1        0.1490
     70 H           9.0550   -6.3284   -0.4290 H       1  LIG1        0.0498
     71 H           9.2461   -6.7343    2.1668 H       1  LIG1        0.0283
     72 H          10.1012   -7.7328    1.0062 H       1  LIG1        0.0283
     73 H           7.6276   -8.5116    2.5805 H       1  LIG1        0.0266
     74 H           9.2436   -9.2056    2.6588 H       1  LIG1        0.0266
     75 H           7.7564  -10.6808    1.3537 H       1  LIG1        0.0265
     76 H           9.0284  -10.0356    0.3168 H       1  LIG1        0.0265
     77 H           6.2082   -8.8685    0.5877 H       1  LIG1        0.0266
     78 H           6.7629   -9.8795   -0.7443 H       1  LIG1        0.0266
     79 H           6.8137   -7.4797   -1.2891 H       1  LIG1        0.0283
     80 H           8.3850   -8.2566   -1.4491 H       1  LIG1        0.0283
@<TRIPOS>BOND
     1     1     2    1
     2     2     3    1
     3     2     4    1
     4     5     7    1
     5     7     8   am
     6     8     9    2
     7     8    10    1
     8    10    11    1
     9    11    12    1
    10    12    13   ar
    11    13    14   ar
    12    14    15   ar
    13    15    16   ar
    14    16    17   ar
    15    12    17   ar
    16     5    18    1
    17    18    19    2
    18    18    20   am
    19    20    21    1
    20    21    22    1
    21    21    23    1
    22    23    24    1
    23    24    25    1
    24    25    26    1
    25    26    27    1
    26    27    28   am
    27    24    28    1
    28    28    29    2
    29    21    30    1
    30    30    31    1
    31    30    32    1
    32    32    33    2
    33    32    34   am
    34    34    35    1
    35    35    36    1
    36    36    37    1
    37    37    38    1
    38    38    39    1
    39    39    40    1
    40    35    40    1
    41     5     6    1
    42     5     4    1
    43     1    41    1
    44     1    42    1
    45     1    43    1
    46     2    44    1
    47     3    45    1
    48     3    46    1
    49     3    47    1
    50     4    48    1
    51     4    49    1
    52     7    50    1
    53    11    51    1
    54    11    52    1
    55    13    53    1
    56    14    54    1
    57    15    55    1
    58    16    56    1
    59    17    57    1
    60    20    58    1
    61    23    59    1
    62    23    60    1
    63    24    61    1
    64    25    62    1
    65    25    63    1
    66    26    64    1
    67    26    65    1
    68    27    66    1
    69    30    67    1
    70    31    68    1
    71    34    69    1
    72    35    70    1
    73    36    71    1
    74    36    72    1
    75    37    73    1
    76    37    74    1
    77    38    75    1
    78    38    76    1
    79    39    77    1
    80    39    78    1
    81    40    79    1
    82    40    80    1
@<TRIPOS>MOLECULE
*****
 77 79 0 0 0
SMALL
GASTEIGER

@<TRIPOS>ATOM
      1 C           1.2965   -0.4326   -1.4777 C.3     1  LIG1       -0.0626
      2 C           2.5242   -1.3316   -1.2655 C.3     1  LIG1       -0.0446
      3 C           3.4182   -1.2324   -2.5041 C.3     1  LIG1       -0.0626
      4 C           3.3137   -1.0721    0.0563 C.3     1  LIG1       -0.0235
      5 C           4.5906   -1.9440    0.1785 C.3     1  LIG1        0.1027
      6 H           5.2501   -1.7421   -0.6752 H       1  LIG1        0.0596
      7 N           4.2259   -3.3601    0.1399 N.am    1  LIG1       -0.2698
      8 C           5.1288   -4.3078   -0.1617 C.2     1  LIG1        0.4012
      9 O           6.2685   -4.0410   -0.5873 O.2     1  LIG1       -0.2265
     10 O           4.6757   -5.5662    0.2073 O.3     1  LIG1       -0.4456
     11 C           5.7228   -6.4879    0.4739 C.3     1  LIG1        0.1191
     12 C           6.2156   -7.2181   -0.7522 C.ar    1  LIG1       -0.0103
     13 C           7.3231   -6.7271   -1.4594 C.ar    1  LIG1       -0.0554
     14 C           7.7976   -7.3800   -2.5945 C.ar    1  LIG1       -0.0614
     15 C           7.1791   -8.5475   -3.0287 C.ar    1  LIG1       -0.0617
     16 C           6.0841   -9.0561   -2.3300 C.ar    1  LIG1       -0.0614
     17 C           5.5967   -8.3915   -1.2001 C.ar    1  LIG1       -0.0554
     18 C           5.4501   -1.6734    1.4647 C.2     1  LIG1        0.2338
     19 O           4.9050   -1.6179    2.5605 O.2     1  LIG1       -0.2738
     20 N           6.8272   -1.6758    1.2376 N.am    1  LIG1       -0.3080
     21 C           8.0218   -1.3598    2.1113 C.3     1  LIG1        0.0583
     22 H           7.9459   -0.3019    2.3787 H       1  LIG1        0.0529
     23 C           8.0971   -2.2289    3.3847 C.3     1  LIG1       -0.0205
     24 C           7.1133   -1.8786    4.5033 C.3     1  LIG1        0.0387
     25 C           7.2808   -2.7755    5.7385 C.3     1  LIG1       -0.0262
     26 C           7.4173   -1.8351    6.9202 C.3     1  LIG1        0.0123
     27 N           7.6502   -0.5468    6.3575 N.am    1  LIG1       -0.3151
     28 C           7.3372   -0.4761    5.0264 C.2     1  LIG1        0.2162
     29 O           7.2861    0.5671    4.3980 O.2     1  LIG1       -0.2755
     30 C           9.3157   -1.4732    1.2116 C.3     1  LIG1        0.1490
     31 O           9.2541   -0.3975    0.2505 O.3     1  LIG1       -0.3807
     32 C          10.7114   -1.4402    1.9037 C.2     1  LIG1        0.2437
     33 O          11.4866   -0.4950    1.7562 O.2     1  LIG1       -0.2729
     34 N          11.0644   -2.5596    2.6279 N.am    1  LIG1       -0.3090
     35 C          12.3240   -2.6363    3.3417 C.3     1  LIG1        0.0369
     36 C          12.7133   -4.0693    3.6009 C.ar    1  LIG1       -0.0303
     37 C          12.9422   -4.5345    4.9035 C.ar    1  LIG1       -0.0571
     38 C          13.3396   -5.8559    5.1235 C.ar    1  LIG1       -0.0615
     39 C          13.5117   -6.7236    4.0463 C.ar    1  LIG1       -0.0617
     40 C          13.2871   -6.2730    2.7475 C.ar    1  LIG1       -0.0615
     41 C          12.8921   -4.9535    2.5255 C.ar    1  LIG1       -0.0571
     42 H           0.6771   -0.8523   -2.2845 H       1  LIG1        0.0232
     43 H           1.5679    0.5839   -1.7855 H       1  LIG1        0.0232
     44 H           0.6609   -0.3750   -0.5902 H       1  LIG1        0.0232
     45 H           2.1368   -2.3568   -1.2164 H       1  LIG1        0.0296
     46 H           3.9656   -0.2839   -2.5210 H       1  LIG1        0.0232
     47 H           2.8280   -1.3023   -3.4235 H       1  LIG1        0.0232
     48 H           4.1415   -2.0521   -2.5322 H       1  LIG1        0.0232
     49 H           2.6464   -1.2837    0.9056 H       1  LIG1        0.0290
     50 H           3.5864   -0.0135    0.1388 H       1  LIG1        0.0290
     51 H           3.3865   -3.6706    0.6577 H       1  LIG1        0.1528
     52 H           5.3206   -7.2091    1.1897 H       1  LIG1        0.0749
     53 H           6.5608   -6.0020    0.9985 H       1  LIG1        0.0749
     54 H           7.8212   -5.8161   -1.1349 H       1  LIG1        0.0621
     55 H           8.6451   -6.9695   -3.1367 H       1  LIG1        0.0618
     56 H           7.5494   -9.0569   -3.9141 H       1  LIG1        0.0618
     57 H           5.6078   -9.9716   -2.6708 H       1  LIG1        0.0618
     58 H           4.7382   -8.8013   -0.6724 H       1  LIG1        0.0621
     59 H           7.0890   -1.8871    0.2781 H       1  LIG1        0.1491
     60 H           9.0780   -2.0914    3.8485 H       1  LIG1        0.0291
     61 H           8.0127   -3.2877    3.1091 H       1  LIG1        0.0291
     62 H           6.0815   -1.9794    4.2087 H       1  LIG1        0.0395
     63 H           8.1432   -3.4471    5.6620 H       1  LIG1        0.0288
     64 H           6.3985   -3.4166    5.8586 H       1  LIG1        0.0288
     65 H           8.2587   -2.1004    7.5636 H       1  LIG1        0.0462
     66 H           6.4992   -1.7917    7.5138 H       1  LIG1        0.0462
     67 H           7.7519    0.3147    6.8806 H       1  LIG1        0.1487
     68 H           9.2846   -2.3933    0.6149 H       1  LIG1        0.0709
     69 H           9.5096    0.4144    0.7370 H       1  LIG1        0.2105
     70 H          10.3933   -3.2928    2.8090 H       1  LIG1        0.1491
     71 H          12.2035   -2.0863    4.2830 H       1  LIG1        0.0512
     72 H          13.1118   -2.1380    2.7671 H       1  LIG1        0.0512
     73 H          12.8278   -3.8702    5.7573 H       1  LIG1        0.0621
     74 H          13.5268   -6.2068    6.1354 H       1  LIG1        0.0618
     75 H          13.8305   -7.7486    4.2177 H       1  LIG1        0.0618
     76 H          13.4312   -6.9451    1.9054 H       1  LIG1        0.0618
     77 H          12.7350   -4.6092    1.5048 H       1  LIG1        0.0621
@<TRIPOS>BOND
     1     1     2    1
     2     2     3    1
     3     2     4    1
     4     5     7    1
     5     7     8   am
     6     8     9    2
     7     8    10    1
     8    10    11    1
     9    11    12    1
    10    12    13   ar
    11    13    14   ar
    12    14    15   ar
    13    15    16   ar
    14    16    17   ar
    15    12    17   ar
    16     5    18    1
    17    18    19    2
    18    18    20   am
    19    20    21    1
    20    21    22    1
    21    21    23    1
    22    23    24    1
    23    24    25    1
    24    25    26    1
    25    26    27    1
    26    27    28   am
    27    24    28    1
    28    28    29    2
    29    21    30    1
    30    30    31    1
    31    30    32    1
    32    32    33    2
    33    32    34   am
    34    34    35    1
    35    35    36    1
    36    36    37   ar
    37    37    38   ar
    38    38    39   ar
    39    39    40   ar
    40    40    41   ar
    41    36    41   ar
    42     5     6    1
    43     5     4    1
    44     1    42    1
    45     1    43    1
    46     1    44    1
    47     2    45    1
    48     3    46    1
    49     3    47    1
    50     3    48    1
    51     4    49    1
    52     4    50    1
    53     7    51    1
    54    11    52    1
    55    11    53    1
    56    13    54    1
    57    14    55    1
    58    15    56    1
    59    16    57    1
    60    17    58    1
    61    20    59    1
    62    23    60    1
    63    23    61    1
    64    24    62    1
    65    25    63    1
    66    25    64    1
    67    26    65    1
    68    26    66    1
    69    27    67    1
    70    30    68    1
    71    31    69    1
    72    34    70    1
    73    35    71    1
    74    35    72    1
    75    37    73    1
    76    38    74    1
    77    39    75    1
    78    40    76    1
    79    41    77    1
@<TRIPOS>MOLECULE
*****
 76 77 0 0 0
SMALL
GASTEIGER

@<TRIPOS>ATOM
      1 C          -0.4289    4.6330   -1.9808 C.3     1  LIG1       -0.0626
      2 C           0.8542    5.1166   -2.6655 C.3     1  LIG1       -0.0446
      3 C           0.6127    6.5167   -3.2317 C.3     1  LIG1       -0.0626
      4 C           2.0362    5.0624   -1.6697 C.3     1  LIG1       -0.0235
      5 C           3.4009    5.5328   -2.2217 C.3     1  LIG1        0.1027
      6 H           3.3012    6.5445   -2.6106 H       1  LIG1        0.0596
      7 N           3.8822    4.7583   -3.3610 N.am    1  LIG1       -0.2698
      8 C           3.8855    3.4137   -3.5169 C.2     1  LIG1        0.4012
      9 O           3.5256    2.6037   -2.6831 O.2     1  LIG1       -0.2265
     10 O           4.3266    3.1322   -4.7705 O.3     1  LIG1       -0.4456
     11 C           4.0109    1.8308   -5.2597 C.3     1  LIG1        0.1191
     12 C           2.6249    1.9299   -5.8323 C.ar    1  LIG1       -0.0103
     13 C           2.4303    2.3682   -7.1462 C.ar    1  LIG1       -0.0554
     14 C           1.1397    2.5977   -7.6208 C.ar    1  LIG1       -0.0614
     15 C           0.0419    2.4160   -6.7813 C.ar    1  LIG1       -0.0617
     16 C           0.2275    2.0002   -5.4657 C.ar    1  LIG1       -0.0614
     17 C           1.5125    1.7500   -4.9957 C.ar    1  LIG1       -0.0554
     18 C           4.4302    5.6765   -1.0642 C.2     1  LIG1        0.2338
     19 O           4.3990    6.6398   -0.3025 O.2     1  LIG1       -0.2738
     20 N           5.2726    4.6105   -0.8664 N.am    1  LIG1       -0.3080
     21 C           6.2487    4.4739    0.2288 C.3     1  LIG1        0.0583
     22 H           5.7770    4.9267    1.1104 H       1  LIG1        0.0529
     23 C           6.4471    2.9499    0.5648 C.3     1  LIG1       -0.0205
     24 C           7.1822    2.0509   -0.4601 C.3     1  LIG1        0.0387
     25 C           7.1695    0.5526   -0.0865 C.3     1  LIG1       -0.0262
     26 C           6.0047   -0.0664   -0.8440 C.3     1  LIG1        0.0123
     27 N           5.7352    0.8712   -1.8815 N.am    1  LIG1       -0.3151
     28 C           6.4920    2.0130   -1.7943 C.2     1  LIG1        0.2162
     29 O           6.5100    2.9149   -2.6158 O.2     1  LIG1       -0.2755
     30 C           7.6056    5.2089   -0.0056 C.3     1  LIG1        0.1490
     31 O           8.1774    4.9045   -1.2802 O.3     1  LIG1       -0.3807
     32 C           7.5893    6.7386    0.2898 C.2     1  LIG1        0.2439
     33 O           7.8158    7.1456    1.4292 O.2     1  LIG1       -0.2729
     34 N           7.3204    7.5614   -0.7881 N.am    1  LIG1       -0.3084
     35 C           7.3022    9.0435   -0.7791 C.3     1  LIG1        0.0262
     36 C           8.6946    9.6091   -1.1146 C.3     1  LIG1       -0.0442
     37 C           6.3217    9.5203   -1.8683 C.3     1  LIG1       -0.0442
     38 C           6.8375    9.6352    0.5726 C.3     1  LIG1       -0.0442
     39 H          -1.2859    4.6986   -2.6607 H       1  LIG1        0.0232
     40 H          -0.6589    5.2395   -1.0967 H       1  LIG1        0.0232
     41 H          -0.3370    3.5904   -1.6608 H       1  LIG1        0.0232
     42 H           1.0621    4.4430   -3.5035 H       1  LIG1        0.0296
     43 H           1.4963    6.9124   -3.7395 H       1  LIG1        0.0232
     44 H           0.3245    7.2187   -2.4425 H       1  LIG1        0.0232
     45 H          -0.1950    6.4939   -3.9726 H       1  LIG1        0.0232
     46 H           2.1213    4.0402   -1.2778 H       1  LIG1        0.0290
     47 H           1.7860    5.6815   -0.7959 H       1  LIG1        0.0290
     48 H           4.1127    5.2653   -4.2179 H       1  LIG1        0.1528
     49 H           4.0848    1.0463   -4.4968 H       1  LIG1        0.0749
     50 H           4.7371    1.5721   -6.0420 H       1  LIG1        0.0749
     51 H           3.2833    2.5649   -7.7922 H       1  LIG1        0.0621
     52 H           0.9926    2.9446   -8.6396 H       1  LIG1        0.0618
     53 H          -0.9607    2.6141   -7.1484 H       1  LIG1        0.0618
     54 H          -0.6213    1.8944   -4.7959 H       1  LIG1        0.0618
     55 H           1.6477    1.4654   -3.9533 H       1  LIG1        0.0621
     56 H           5.1202    3.8243   -1.4902 H       1  LIG1        0.1491
     57 H           5.4577    2.5207    0.7804 H       1  LIG1        0.0291
     58 H           7.0113    2.8924    1.5049 H       1  LIG1        0.0291
     59 H           8.2157    2.3789   -0.5961 H       1  LIG1        0.0395
     60 H           7.1107    0.3622    0.9884 H       1  LIG1        0.0288
     61 H           8.0992    0.0943   -0.4496 H       1  LIG1        0.0288
     62 H           5.1101   -0.2105   -0.2323 H       1  LIG1        0.0462
     63 H           6.2778   -1.0191   -1.3113 H       1  LIG1        0.0462
     64 H           5.0141    0.7695   -2.5862 H       1  LIG1        0.1487
     65 H           8.3160    4.8209    0.7372 H       1  LIG1        0.0709
     66 H           7.4471    4.6642   -1.8811 H       1  LIG1        0.2105
     67 H           7.3114    7.1021   -1.6901 H       1  LIG1        0.1493
     68 H           9.0436    9.2599   -2.0930 H       1  LIG1        0.0250
     69 H           9.4421    9.3127   -0.3722 H       1  LIG1        0.0250
     70 H           8.6725   10.7061   -1.1473 H       1  LIG1        0.0250
     71 H           6.6867    9.2740   -2.8718 H       1  LIG1        0.0250
     72 H           6.1797   10.6075   -1.8305 H       1  LIG1        0.0250
     73 H           5.3393    9.0506   -1.7503 H       1  LIG1        0.0250
     74 H           7.6348    9.5758    1.3204 H       1  LIG1        0.0250
     75 H           5.9636    9.1063    0.9545 H       1  LIG1        0.0250
     76 H           6.5837   10.6945    0.4736 H       1  LIG1        0.0250
@<TRIPOS>BOND
     1     1     2    1
     2     2     3    1
     3     2     4    1
     4     5     7    1
     5     7     8   am
     6     8     9    2
     7     8    10    1
     8    10    11    1
     9    11    12    1
    10    12    13   ar
    11    13    14   ar
    12    14    15   ar
    13    15    16   ar
    14    16    17   ar
    15    12    17   ar
    16     5    18    1
    17    18    19    2
    18    18    20   am
    19    20    21    1
    20    21    22    1
    21    21    23    1
    22    23    24    1
    23    24    25    1
    24    25    26    1
    25    26    27    1
    26    27    28   am
    27    24    28    1
    28    28    29    2
    29    21    30    1
    30    30    31    1
    31    30    32    1
    32    32    33    2
    33    32    34   am
    34    34    35    1
    35    35    36    1
    36    35    37    1
    37    35    38    1
    38     5     6    1
    39     5     4    1
    40     1    39    1
    41     1    40    1
    42     1    41    1
    43     2    42    1
    44     3    43    1
    45     3    44    1
    46     3    45    1
    47     4    46    1
    48     4    47    1
    49     7    48    1
    50    11    49    1
    51    11    50    1
    52    13    51    1
    53    14    52    1
    54    15    53    1
    55    16    54    1
    56    17    55    1
    57    20    56    1
    58    23    57    1
    59    23    58    1
    60    24    59    1
    61    25    60    1
    62    25    61    1
    63    26    62    1
    64    26    63    1
    65    27    64    1
    66    30    65    1
    67    31    66    1
    68    34    67    1
    69    36    68    1
    70    36    69    1
    71    36    70    1
    72    37    71    1
    73    37    72    1
    74    37    73    1
    75    38    74    1
    76    38    75    1
    77    38    76    1
@<TRIPOS>MOLECULE
*****
 74 76 0 0 0
SMALL
GASTEIGER

@<TRIPOS>ATOM
      1 C          12.1138   -7.5081    7.9831 C.3     1  LIG1       -0.0469
      2 C          12.4049   -8.1694    6.6393 C.3     1  LIG1        0.0176
      3 C          12.1452   -9.6758    6.7459 C.3     1  LIG1       -0.0469
      4 N          11.6125   -7.5382    5.5911 N.am    1  LIG1       -0.3108
      5 C          11.6964   -7.9308    4.2699 C.2     1  LIG1        0.2437
      6 O          12.4888   -8.8005    3.9228 O.2     1  LIG1       -0.2729
      7 C          10.8006   -7.1210    3.2907 C.3     1  LIG1        0.1490
      8 O           9.6345   -6.6483    3.9929 O.3     1  LIG1       -0.3807
      9 C          10.3601   -7.9414    2.0373 C.3     1  LIG1        0.0583
     10 H           9.7822   -8.7934    2.4113 H       1  LIG1        0.0529
     11 C          11.5671   -8.4501    1.1969 C.3     1  LIG1       -0.0205
     12 C          11.2242   -9.3911    0.0462 C.3     1  LIG1        0.0387
     13 C          12.4528   -9.8331   -0.7746 C.3     1  LIG1       -0.0262
     14 C          11.9437  -11.0917   -1.4549 C.3     1  LIG1        0.0123
     15 N          11.1267  -11.6804   -0.4388 N.am    1  LIG1       -0.3151
     16 C          10.6953  -10.7481    0.4866 C.2     1  LIG1        0.2162
     17 O           9.9716  -10.9959    1.4333 O.2     1  LIG1       -0.2755
     18 N           9.3902   -7.2070    1.1745 N.am    1  LIG1       -0.3079
     19 C           9.6823   -6.0531    0.4806 C.2     1  LIG1        0.2341
     20 O          10.7629   -5.4725    0.5908 O.2     1  LIG1       -0.2738
     21 C           8.5874   -5.5481   -0.4941 C.3     1  LIG1        0.1064
     22 H           7.7143   -6.2114   -0.4745 H       1  LIG1        0.0599
     23 C           9.2426   -5.5329   -1.8954 C.3     1  LIG1       -0.0005
     24 C           8.3566   -5.0543   -3.0226 C.ar    1  LIG1       -0.0451
     25 C           7.5996   -5.9589   -3.7777 C.ar    1  LIG1       -0.0585
     26 C           6.7523   -5.4997   -4.7897 C.ar    1  LIG1       -0.0615
     27 C           6.6553   -4.1354   -5.0585 C.ar    1  LIG1       -0.0617
     28 C           7.4208   -3.2291   -4.3300 C.ar    1  LIG1       -0.0615
     29 C           8.2737   -3.6865   -3.3246 C.ar    1  LIG1       -0.0585
     30 N           8.2000   -4.2083   -0.0734 N.am    1  LIG1       -0.2695
     31 C           7.0568   -3.9024    0.5958 C.2     1  LIG1        0.4012
     32 O           6.1557   -4.6659    0.8539 O.2     1  LIG1       -0.2265
     33 O           7.1028   -2.5731    0.8814 O.3     1  LIG1       -0.4456
     34 C           5.8543   -1.9618    1.2151 C.3     1  LIG1        0.1191
     35 C           5.2256   -1.4238   -0.0472 C.ar    1  LIG1       -0.0103
     36 C           4.3539   -2.2396   -0.7817 C.ar    1  LIG1       -0.0554
     37 C           3.7273   -1.7595   -1.9304 C.ar    1  LIG1       -0.0614
     38 C           3.9725   -0.4599   -2.3655 C.ar    1  LIG1       -0.0617
     39 C           4.8650    0.3510   -1.6652 C.ar    1  LIG1       -0.0614
     40 C           5.5011   -0.1315   -0.5171 C.ar    1  LIG1       -0.0554
     41 H          12.8082   -7.8677    8.7494 H       1  LIG1        0.0247
     42 H          11.0940   -7.7328    8.3167 H       1  LIG1        0.0247
     43 H          12.2080   -6.4192    7.9189 H       1  LIG1        0.0247
     44 H          13.4586   -8.0077    6.3802 H       1  LIG1        0.0493
     45 H          11.0855   -9.8814    6.9306 H       1  LIG1        0.0247
     46 H          12.7323  -10.1142    7.5593 H       1  LIG1        0.0247
     47 H          12.4237  -10.2101    5.8329 H       1  LIG1        0.0247
     48 H          10.9413   -6.8217    5.8319 H       1  LIG1        0.1490
     49 H          11.3771   -6.2416    2.9831 H       1  LIG1        0.0709
     50 H           9.8510   -5.7588    4.3197 H       1  LIG1        0.2105
     51 H          12.2647   -9.0008    1.8239 H       1  LIG1        0.0291
     52 H          12.1277   -7.5914    0.8106 H       1  LIG1        0.0291
     53 H          10.4856   -8.9391   -0.6245 H       1  LIG1        0.0395
     54 H          13.2937  -10.0895   -0.1138 H       1  LIG1        0.0288
     55 H          12.7988   -9.0790   -1.4864 H       1  LIG1        0.0288
     56 H          12.7341  -11.7802   -1.7622 H       1  LIG1        0.0462
     57 H          11.3014  -10.8548   -2.3093 H       1  LIG1        0.0462
     58 H          10.8427  -12.6504   -0.3775 H       1  LIG1        0.1487
     59 H           8.4118   -7.4481    1.2985 H       1  LIG1        0.1491
     60 H           9.6139   -6.5389   -2.1334 H       1  LIG1        0.0336
     61 H          10.1383   -4.8959   -1.8787 H       1  LIG1        0.0336
     62 H           7.6573   -7.0271   -3.5833 H       1  LIG1        0.0620
     63 H           6.1546   -6.2058   -5.3604 H       1  LIG1        0.0618
     64 H           5.9784   -3.7774   -5.8295 H       1  LIG1        0.0618
     65 H           7.3432   -2.1640   -4.5323 H       1  LIG1        0.0618
     66 H           8.8639   -2.9614   -2.7694 H       1  LIG1        0.0620
     67 H           8.8223   -3.4326   -0.2526 H       1  LIG1        0.1528
     68 H           6.0484   -1.1392    1.9142 H       1  LIG1        0.0749
     69 H           5.1704   -2.6454    1.7333 H       1  LIG1        0.0749
     70 H           4.1504   -3.2565   -0.4504 H       1  LIG1        0.0621
     71 H           3.0395   -2.3999   -2.4756 H       1  LIG1        0.0618
     72 H           3.4657   -0.0807   -3.2488 H       1  LIG1        0.0618
     73 H           5.0545    1.3647   -2.0092 H       1  LIG1        0.0618
     74 H           6.1964    0.5151    0.0137 H       1  LIG1        0.0621
@<TRIPOS>BOND
     1     1     2    1
     2     2     3    1
     3     2     4    1
     4     4     5   am
     5     5     6    2
     6     5     7    1
     7     7     8    1
     8     9    11    1
     9    11    12    1
    10    12    13    1
    11    13    14    1
    12    14    15    1
    13    15    16   am
    14    12    16    1
    15    16    17    2
    16     9    18    1
    17    18    19   am
    18    19    20    2
    19    21    23    1
    20    23    24    1
    21    24    25   ar
    22    25    26   ar
    23    26    27   ar
    24    27    28   ar
    25    28    29   ar
    26    24    29   ar
    27    21    30    1
    28    30    31   am
    29    31    32    2
    30    31    33    1
    31    33    34    1
    32    34    35    1
    33    35    36   ar
    34    36    37   ar
    35    37    38   ar
    36    38    39   ar
    37    39    40   ar
    38    35    40   ar
    39    21    22    1
    40    21    19    1
    41     9    10    1
    42     9     7    1
    43     1    41    1
    44     1    42    1
    45     1    43    1
    46     2    44    1
    47     3    45    1
    48     3    46    1
    49     3    47    1
    50     4    48    1
    51     7    49    1
    52     8    50    1
    53    11    51    1
    54    11    52    1
    55    12    53    1
    56    13    54    1
    57    13    55    1
    58    14    56    1
    59    14    57    1
    60    15    58    1
    61    18    59    1
    62    23    60    1
    63    23    61    1
    64    25    62    1
    65    26    63    1
    66    27    64    1
    67    28    65    1
    68    29    66    1
    69    30    67    1
    70    34    68    1
    71    34    69    1
    72    36    70    1
    73    37    71    1
    74    38    72    1
    75    39    73    1
    76    40    74    1
@<TRIPOS>MOLECULE
*****
 71 72 0 0 0
SMALL
GASTEIGER

@<TRIPOS>ATOM
      1 O           2.6317   -2.3833    0.0636 O.2     1  LIG1        0.0000
      2 C           3.6295   -2.4892    0.7079 C.2     1  LIG1        0.0000
      3 N           3.7999   -2.0020    1.9996 N.am    1  LIG1        0.0000
      4 C           2.7545   -1.2507    2.7590 C.3     1  LIG1        0.0000
      5 H           3.1008   -1.1046    3.7918 H       1  LIG1        0.0000
      6 C           2.4133    0.1035    2.0303 C.3     1  LIG1        0.0000
      7 C           3.4239    1.2744    1.7340 C.3     1  LIG1        0.0000
      8 C           4.6453    0.8971    0.8789 C.3     1  LIG1        0.0000
      9 C           4.2958    0.4587   -0.5506 C.3     1  LIG1        0.0000
     10 C           3.4438    1.4449   -1.3361 C.3     1  LIG1        0.0000
     11 C           2.3282    2.0341   -0.4768 C.3     1  LIG1        0.0000
     12 C           2.7813    2.4572    0.9296 C.3     1  LIG1        0.0000
     13 C           1.4029   -2.0996    2.8343 C.2     1  LIG1        0.0000
     14 O           0.7606   -2.2040    1.7869 O.2     1  LIG1        0.0000
     15 N           0.9993   -2.8085    3.9719 N.am    1  LIG1        0.0000
     16 C          -0.2706   -3.7022    4.0255 C.3     1  LIG1        0.0000
     17 H          -1.0564   -2.9892    4.3115 H       1  LIG1        0.0000
     18 C          -0.6186   -4.2841    2.6375 C.3     1  LIG1        0.0000
     19 C           0.3696   -5.3187    2.0966 C.3     1  LIG1        0.0000
     20 C           0.0715   -5.7114    0.6354 C.3     1  LIG1        0.0000
     21 C           1.1847   -5.1442   -0.1880 C.3     1  LIG1        0.0000
     22 N           2.2164   -5.0343    0.7745 N.am    1  LIG1        0.0000
     23 C           1.8164   -4.9690    2.0685 C.2     1  LIG1        0.0000
     24 O           2.5940   -4.7872    2.9912 O.2     1  LIG1        0.0000
     25 C          -0.2332   -4.8341    5.1287 C.3     1  LIG1        0.0000
     26 O          -0.2091   -4.2284    6.4589 O.3     1  LIG1        0.0000
     27 S          -1.5973   -6.1551    4.9533 S.3     1  LIG1        0.0000
     28 O          -2.8468   -5.4042    4.9296 O.2     1  LIG1        0.0000
     29 O          -1.3215   -6.9117    3.7252 O.2     1  LIG1        0.0000
     30 O          -1.4100   -6.9707    6.1527 O.co2   1  LIG1       -1.0000
     31 O           4.6933   -3.2824    0.3248 O.3     1  LIG1        0.0000
     32 C           4.6612   -4.5471   -0.4992 C.3     1  LIG1        0.0000
     33 C           4.1034   -4.6632   -1.9232 C.ar    1  LIG1        0.0000
     34 C           3.4438   -3.6079   -2.5435 C.ar    1  LIG1        0.0000
     35 C           3.2456   -3.5693   -3.9244 C.ar    1  LIG1        0.0000
     36 C           3.6610   -4.6259   -4.7189 C.ar    1  LIG1        0.0000
     37 C           4.1471   -5.7771   -4.1071 C.ar    1  LIG1        0.0000
     38 C           4.3060   -5.8227   -2.7085 C.ar    1  LIG1        0.0000
     39 NA          0.7080   -8.8750    0.9906 Na      2  LIG2        0.0000
     40 H           4.7560   -1.8848    2.2816 H       1  LIG1        0.0000
     41 H           1.5556    0.5305    2.5655 H       1  LIG1        0.0000
     42 H           2.0443   -0.2021    1.0535 H       1  LIG1        0.0000
     43 H           3.7602    1.6839    2.6982 H       1  LIG1        0.0000
     44 H           5.2449    0.1399    1.3853 H       1  LIG1        0.0000
     45 H           5.2871    1.7859    0.7952 H       1  LIG1        0.0000
     46 H           3.7215   -0.4580   -0.5299 H       1  LIG1        0.0000
     47 H           5.2101    0.2234   -1.1040 H       1  LIG1        0.0000
     48 H           2.9836    0.9185   -2.1861 H       1  LIG1        0.0000
     49 H           4.0737    2.2259   -1.7782 H       1  LIG1        0.0000
     50 H           1.5510    1.2721   -0.3738 H       1  LIG1        0.0000
     51 H           1.8684    2.8719   -1.0129 H       1  LIG1        0.0000
     52 H           1.9470    2.9094    1.4764 H       1  LIG1        0.0000
     53 H           3.5274    3.2615    0.8175 H       1  LIG1        0.0000
     54 H           1.4422   -2.6251    4.8660 H       1  LIG1        0.0000
     55 H          -0.8048   -3.4845    1.9198 H       1  LIG1        0.0000
     56 H          -1.6162   -4.7305    2.6634 H       1  LIG1        0.0000
     57 H           0.3935   -6.2236    2.6950 H       1  LIG1        0.0000
     58 H          -0.9029   -5.4026    0.2604 H       1  LIG1        0.0000
     59 H           0.1332   -6.7959    0.5561 H       1  LIG1        0.0000
     60 H           0.9702   -4.1751   -0.6468 H       1  LIG1        0.0000
     61 H           1.5568   -5.8289   -0.9566 H       1  LIG1        0.0000
     62 H           2.8551   -4.2891    0.6213 H       1  LIG1        0.0000
     63 H           0.6884   -5.4163    5.0505 H       1  LIG1        0.0000
     64 H          -0.7504   -4.8465    7.0025 H       1  LIG1        0.0000
     65 H           4.2677   -5.3658    0.1116 H       1  LIG1        0.0000
     66 H           5.7184   -4.8261   -0.5339 H       1  LIG1        0.0000
     67 H           3.1010   -2.7591   -1.9750 H       1  LIG1        0.0000
     68 H           2.8365   -2.6672   -4.3707 H       1  LIG1        0.0000
     69 H           3.6158   -4.5358   -5.8017 H       1  LIG1        0.0000
     70 H           4.4681   -6.6086   -4.7325 H       1  LIG1        0.0000
     71 H           4.6381   -6.7609   -2.2659 H       1  LIG1        0.0000
@<TRIPOS>BOND
     1     1     2    2
     2     2     3   am
     3     3     4    1
     4     4     5    1
     5     4     6    1
     6     6     7    1
     7     7     8    1
     8     8     9    1
     9     9    10    1
    10    10    11    1
    11    11    12    1
    12     7    12    1
    13     4    13    1
    14    13    14    2
    15    13    15   am
    16    15    16    1
    17    16    17    1
    18    16    18    1
    19    18    19    1
    20    19    20    1
    21    20    21    1
    22    21    22    1
    23    22    23   am
    24    19    23    1
    25    23    24    2
    26    16    25    1
    27    25    26    1
    28    25    27    1
    29    27    28    2
    30    27    29    2
    31    27    30    1
    32     2    31    1
    33    31    32    1
    34    32    33    1
    35    33    34   ar
    36    34    35   ar
    37    35    36   ar
    38    36    37   ar
    39    37    38   ar
    40    33    38   ar
    41     3    40    1
    42     6    41    1
    43     6    42    1
    44     7    43    1
    45     8    44    1
    46     8    45    1
    47     9    46    1
    48     9    47    1
    49    10    48    1
    50    10    49    1
    51    11    50    1
    52    11    51    1
    53    12    52    1
    54    12    53    1
    55    15    54    1
    56    18    55    1
    57    18    56    1
    58    19    57    1
    59    20    58    1
    60    20    59    1
    61    21    60    1
    62    21    61    1
    63    22    62    1
    64    25    63    1
    65    26    64    1
    66    32    65    1
    67    32    66    1
    68    34    67    1
    69    35    68    1
    70    36    69    1
    71    37    70    1
    72    38    71    1
@<TRIPOS>MOLECULE
*****
 71 73 0 0 0
SMALL
GASTEIGER

@<TRIPOS>ATOM
      1 O           2.6275    0.1966    3.2523 O.2     1  LIG1       -0.2265
      2 C           3.0952   -0.2026    2.2134 C.2     1  LIG1        0.4012
      3 N           2.6144   -1.2360    1.4500 N.am    1  LIG1       -0.2698
      4 C           1.6694   -2.2152    1.8959 C.3     1  LIG1        0.1027
      5 H           1.0930   -1.8208    2.7332 H       1  LIG1        0.0596
      6 C           0.7756   -2.6916    0.7239 C.3     1  LIG1       -0.0230
      7 C          -0.0668   -1.5935    0.0316 C.3     1  LIG1       -0.0389
      8 C          -0.8899   -2.1378   -1.1570 C.3     1  LIG1       -0.0501
      9 C          -2.0151   -3.0688   -0.7105 C.3     1  LIG1       -0.0528
     10 C          -2.9576   -2.3400    0.2407 C.3     1  LIG1       -0.0530
     11 C          -2.2098   -1.7297    1.4249 C.3     1  LIG1       -0.0528
     12 C          -1.0142   -0.8740    1.0002 C.3     1  LIG1       -0.0501
     13 C           2.5116   -3.4285    2.3402 C.2     1  LIG1        0.2338
     14 O           3.3427   -3.8870    1.5591 O.2     1  LIG1       -0.2738
     15 N           2.2741   -3.9227    3.6092 N.am    1  LIG1       -0.3067
     16 C           2.9415   -5.0931    4.2409 C.3     1  LIG1        0.0724
     17 H           2.8946   -4.8838    5.3168 H       1  LIG1        0.0542
     18 C           2.1580   -6.4201    3.9761 C.3     1  LIG1       -0.0192
     19 C           0.7259   -6.5706    4.5360 C.3     1  LIG1        0.0388
     20 C           0.0749   -7.9151    4.1308 C.3     1  LIG1       -0.0262
     21 C          -0.9930   -8.1663    5.1839 C.3     1  LIG1        0.0123
     22 N          -0.4823   -7.4903    6.3364 N.am    1  LIG1       -0.3151
     23 C           0.5846   -6.6545    6.0485 C.2     1  LIG1        0.2162
     24 O           1.2365   -6.0500    6.8782 O.2     1  LIG1       -0.2755
     25 C           4.4601   -5.3089    3.9000 C.3     1  LIG1        0.2173
     26 O           4.7278   -5.6818    2.5269 O.3     1  LIG1       -0.3677
     27 S           5.5076   -4.0139    4.6617 S.O2    1  LIG1        0.1087
     28 O           5.0990   -2.6747    4.3102 O.2     1  LIG1       -0.1448
     29 O           5.8138   -4.3876    6.0265 O.2     1  LIG1       -0.1448
     30 O           6.8446   -4.2769    3.7820 O.3     1  LIG1       -0.2518
     31 O           4.1375    0.3538    1.4988 O.3     1  LIG1       -0.4456
     32 C           4.1495    1.7816    1.5508 C.3     1  LIG1        0.1191
     33 C           3.3423    2.2528    0.3645 C.ar    1  LIG1       -0.0103
     34 C           1.9530    2.4120    0.4810 C.ar    1  LIG1       -0.0554
     35 C           1.1896    2.8105   -0.6167 C.ar    1  LIG1       -0.0614
     36 C           1.8040    3.0450   -1.8447 C.ar    1  LIG1       -0.0617
     37 C           3.1798    2.8657   -1.9799 C.ar    1  LIG1       -0.0614
     38 C           3.9453    2.4614   -0.8837 C.ar    1  LIG1       -0.0554
     39 H           3.2005   -1.4534    0.6286 H       1  LIG1        0.1528
     40 H           0.1319   -3.4950    1.1018 H       1  LIG1        0.0290
     41 H           1.4063   -3.1585   -0.0462 H       1  LIG1        0.0290
     42 H           0.6312   -0.8526   -0.3808 H       1  LIG1        0.0301
     43 H          -0.2471   -2.6421   -1.8873 H       1  LIG1        0.0268
     44 H          -1.3433   -1.2851   -1.6833 H       1  LIG1        0.0268
     45 H          -1.6036   -3.9586   -0.2210 H       1  LIG1        0.0265
     46 H          -2.5754   -3.4251   -1.5827 H       1  LIG1        0.0265
     47 H          -3.7265   -3.0316    0.6036 H       1  LIG1        0.0265
     48 H          -3.4812   -1.5469   -0.3081 H       1  LIG1        0.0265
     49 H          -1.8716   -2.5340    2.0884 H       1  LIG1        0.0265
     50 H          -2.9017   -1.1104    2.0063 H       1  LIG1        0.0265
     51 H          -0.4758   -0.5307    1.8886 H       1  LIG1        0.0268
     52 H          -1.3861    0.0329    0.5073 H       1  LIG1        0.0268
     53 H           1.7314   -3.3329    4.2346 H       1  LIG1        0.1492
     54 H           2.7567   -7.2460    4.3835 H       1  LIG1        0.0292
     55 H           2.1071   -6.5701    2.8908 H       1  LIG1        0.0292
     56 H           0.0918   -5.7426    4.1992 H       1  LIG1        0.0395
     57 H           0.8126   -8.7276    4.1745 H       1  LIG1        0.0288
     58 H          -0.3444   -7.8986    3.1212 H       1  LIG1        0.0288
     59 H          -1.1181   -9.2306    5.4111 H       1  LIG1        0.0462
     60 H          -1.9652   -7.7405    4.9177 H       1  LIG1        0.0462
     61 H          -0.7940   -7.6468    7.2885 H       1  LIG1        0.1487
     62 H           4.7981   -6.2024    4.4377 H       1  LIG1        0.0885
     63 H           5.6763   -5.4972    2.3636 H       1  LIG1        0.2119
     64 H           7.0307   -3.4473    3.2859 H       1  LIG1        0.2446
     65 H           5.1927    2.1092    1.4496 H       1  LIG1        0.0749
     66 H           3.7752    2.1965    2.4889 H       1  LIG1        0.0749
     67 H           1.4574    2.2176    1.4307 H       1  LIG1        0.0621
     68 H           0.1159    2.9403   -0.5111 H       1  LIG1        0.0618
     69 H           1.2103    3.3659   -2.6966 H       1  LIG1        0.0618
     70 H           3.6566    3.0431   -2.9405 H       1  LIG1        0.0618
     71 H           5.0150    2.3092   -1.0111 H       1  LIG1        0.0621
@<TRIPOS>BOND
     1     1     2    2
     2     2     3   am
     3     3     4    1
     4     4     5    1
     5     4     6    1
     6     6     7    1
     7     7     8    1
     8     8     9    1
     9     9    10    1
    10    10    11    1
    11    11    12    1
    12     7    12    1
    13     4    13    1
    14    13    14    2
    15    13    15   am
    16    15    16    1
    17    16    17    1
    18    16    18    1
    19    18    19    1
    20    19    20    1
    21    20    21    1
    22    21    22    1
    23    22    23   am
    24    19    23    1
    25    23    24    2
    26    16    25    1
    27    25    26    1
    28    25    27    1
    29    27    28    2
    30    27    29    2
    31    27    30    1
    32     2    31    1
    33    31    32    1
    34    32    33    1
    35    33    34   ar
    36    34    35   ar
    37    35    36   ar
    38    36    37   ar
    39    37    38   ar
    40    33    38   ar
    41     3    39    1
    42     6    40    1
    43     6    41    1
    44     7    42    1
    45     8    43    1
    46     8    44    1
    47     9    45    1
    48     9    46    1
    49    10    47    1
    50    10    48    1
    51    11    49    1
    52    11    50    1
    53    12    51    1
    54    12    52    1
    55    15    53    1
    56    18    54    1
    57    18    55    1
    58    19    56    1
    59    20    57    1
    60    20    58    1
    61    21    59    1
    62    21    60    1
    63    22    61    1
    64    25    62    1
    65    26    63    1
    66    30    64    1
    67    32    65    1
    68    32    66    1
    69    34    67    1
    70    35    68    1
    71    36    69    1
    72    37    70    1
    73    38    71    1
@<TRIPOS>MOLECULE
*****
 98 102 0 0 0
SMALL
GASTEIGER

@<TRIPOS>ATOM
      1 O           3.7979    1.7308   -2.1555 O.2     1  LIG1       -0.2265
      2 C           3.3167    1.9061   -1.0511 C.2     1  LIG1        0.4012
      3 N           4.0588    2.3839   -0.0162 N.am    1  LIG1       -0.2698
      4 C           3.6658    2.4023    1.4066 C.3     1  LIG1        0.1027
      5 H           2.5971    2.6293    1.4663 H       1  LIG1        0.0596
      6 C           3.9322    1.0160    2.0081 C.3     1  LIG1       -0.0230
      7 C           3.6508    0.8367    3.5188 C.3     1  LIG1       -0.0389
      8 C           2.2194    1.1635    3.9812 C.3     1  LIG1       -0.0501
      9 C           1.1761    0.1376    3.5334 C.3     1  LIG1       -0.0528
     10 C           1.5655   -1.2983    3.8762 C.3     1  LIG1       -0.0530
     11 C           2.9888   -1.6320    3.4424 C.3     1  LIG1       -0.0528
     12 C           3.9962   -0.6016    3.9549 C.3     1  LIG1       -0.0501
     13 C           4.4590    3.5501    2.0851 C.2     1  LIG1        0.2338
     14 O           5.6015    3.4239    2.5175 O.2     1  LIG1       -0.2738
     15 N           3.8458    4.7860    1.9650 N.am    1  LIG1       -0.3078
     16 C           4.4234    6.0636    2.4104 C.3     1  LIG1        0.0611
     17 H           5.3920    5.8880    2.8895 H       1  LIG1        0.0530
     18 C           4.6232    6.9874    1.1627 C.3     1  LIG1       -0.0203
     19 C           5.7763    6.6282    0.1955 C.3     1  LIG1        0.0387
     20 C           5.6786    5.3018   -0.5608 C.3     1  LIG1       -0.0262
     21 C           4.9303    5.6054   -1.8372 C.3     1  LIG1        0.0123
     22 N           5.3219    6.9525   -2.1055 N.am    1  LIG1       -0.3151
     23 C           5.7981    7.5952   -0.9776 C.2     1  LIG1        0.2162
     24 O           6.1409    8.7606   -0.9360 O.2     1  LIG1       -0.2755
     25 C           3.4706    6.7460    3.4342 C.3     1  LIG1        0.1742
     26 O           2.1357    6.7652    2.8549 O.3     1  LIG1       -0.3781
     27 P           3.3646    6.0481    5.1177 P.3     1  LIG1        0.3633
     28 O           3.2137    4.5616    5.2363 O.2     1  LIG1       -0.2557
     29 O           4.5420    6.7143    5.9964 O.3     1  LIG1       -0.3014
     30 C           5.5916    5.9226    6.5338 C.3     1  LIG1        0.0820
     31 C           6.3405    6.7726    7.5428 C.ar    1  LIG1       -0.0214
     32 C           6.1705    6.6142    8.9299 C.ar    1  LIG1       -0.0564
     33 C           6.8206    7.4682    9.8367 C.ar    1  LIG1       -0.0614
     34 C           7.6468    8.4845    9.3668 C.ar    1  LIG1       -0.0617
     35 C           7.8389    8.6420    7.9981 C.ar    1  LIG1       -0.0614
     36 C           7.1920    7.7946    7.0899 C.ar    1  LIG1       -0.0564
     37 O           2.0626    6.8289    5.7181 O.3     1  LIG1       -0.3014
     38 C           1.7373    6.5332    7.0715 C.3     1  LIG1        0.0820
     39 C           0.5839    7.3798    7.5556 C.ar    1  LIG1       -0.0214
     40 C           0.8103    8.6484    8.1102 C.ar    1  LIG1       -0.0564
     41 C          -0.2526    9.4186    8.6004 C.ar    1  LIG1       -0.0614
     42 C          -1.5557    8.9238    8.5346 C.ar    1  LIG1       -0.0617
     43 C          -1.7958    7.6654    7.9832 C.ar    1  LIG1       -0.0614
     44 C          -0.7332    6.8987    7.4963 C.ar    1  LIG1       -0.0564
     45 O           2.0347    1.6670   -0.6900 O.3     1  LIG1       -0.4456
     46 C           1.2235    0.9829   -1.6545 C.3     1  LIG1        0.1191
     47 C           0.6932    1.8343   -2.7849 C.ar    1  LIG1       -0.0103
     48 C          -0.1180    1.2254   -3.7559 C.ar    1  LIG1       -0.0554
     49 C          -0.6919    1.9795   -4.7797 C.ar    1  LIG1       -0.0614
     50 C          -0.4394    3.3463   -4.8631 C.ar    1  LIG1       -0.0617
     51 C           0.3952    3.9571   -3.9308 C.ar    1  LIG1       -0.0614
     52 C           0.9468    3.2089   -2.8901 C.ar    1  LIG1       -0.0554
     53 H           5.0461    2.4539   -0.2350 H       1  LIG1        0.1528
     54 H           4.9850    0.7528    1.8294 H       1  LIG1        0.0290
     55 H           3.3505    0.2840    1.4340 H       1  LIG1        0.0290
     56 H           4.3280    1.5131    4.0554 H       1  LIG1        0.0301
     57 H           1.9194    2.1639    3.6594 H       1  LIG1        0.0268
     58 H           2.2195    1.1840    5.0784 H       1  LIG1        0.0268
     59 H           1.0163    0.2244    2.4524 H       1  LIG1        0.0265
     60 H           0.2170    0.3681    4.0135 H       1  LIG1        0.0265
     61 H           0.8647   -1.9916    3.3959 H       1  LIG1        0.0265
     62 H           1.4700   -1.4589    4.9576 H       1  LIG1        0.0265
     63 H           3.0285   -1.6892    2.3490 H       1  LIG1        0.0265
     64 H           3.2613   -2.6270    3.8122 H       1  LIG1        0.0265
     65 H           5.0027   -0.8703    3.6144 H       1  LIG1        0.0268
     66 H           4.0171   -0.6428    5.0518 H       1  LIG1        0.0268
     67 H           2.9826    4.8481    1.4338 H       1  LIG1        0.1491
     68 H           4.8306    8.0048    1.5246 H       1  LIG1        0.0291
     69 H           3.6834    7.0666    0.5992 H       1  LIG1        0.0291
     70 H           6.7345    6.6783    0.7250 H       1  LIG1        0.0395
     71 H           5.1997    4.5168   -0.0102 H       1  LIG1        0.0288
     72 H           6.6878    4.9447   -0.8021 H       1  LIG1        0.0288
     73 H           3.8445    5.5719   -1.7039 H       1  LIG1        0.0462
     74 H           5.2191    4.9510   -2.6635 H       1  LIG1        0.0462
     75 H           5.2112    7.4342   -2.9855 H       1  LIG1        0.1487
     76 H           3.7632    7.7933    3.5740 H       1  LIG1        0.0739
     77 H           1.4998    6.7636    3.5991 H       1  LIG1        0.2107
     78 H           6.2641    5.6298    5.7207 H       1  LIG1        0.0615
     79 H           5.2062    5.0118    7.0057 H       1  LIG1        0.0615
     80 H           5.5340    5.8298    9.3278 H       1  LIG1        0.0621
     81 H           6.6730    7.3442   10.9076 H       1  LIG1        0.0618
     82 H           8.1358    9.1599   10.0667 H       1  LIG1        0.0618
     83 H           8.4905    9.4370    7.6302 H       1  LIG1        0.0618
     84 H           7.3516    7.9445    6.0297 H       1  LIG1        0.0621
     85 H           2.6074    6.7105    7.7141 H       1  LIG1        0.0615
     86 H           1.4801    5.4718    7.1552 H       1  LIG1        0.0615
     87 H           1.8213    9.0451    8.1772 H       1  LIG1        0.0621
     88 H          -0.0646   10.3936    9.0312 H       1  LIG1        0.0618
     89 H          -2.3811    9.5189    8.9161 H       1  LIG1        0.0618
     90 H          -2.8110    7.2806    7.9387 H       1  LIG1        0.0618
     91 H          -0.9405    5.9153    7.0802 H       1  LIG1        0.0621
     92 H           0.3566    0.6161   -1.0907 H       1  LIG1        0.0749
     93 H           1.7551    0.1020   -2.0338 H       1  LIG1        0.0749
     94 H          -0.3166    0.1560   -3.7122 H       1  LIG1        0.0621
     95 H          -1.3411    1.5009   -5.5079 H       1  LIG1        0.0618
     96 H          -0.8952    3.9375   -5.6531 H       1  LIG1        0.0618
     97 H           0.6104    5.0196   -4.0055 H       1  LIG1        0.0618
     98 H           1.5778    3.7166   -2.1668 H       1  LIG1        0.0621
@<TRIPOS>BOND
     1     1     2    2
     2     2     3   am
     3     3     4    1
     4     4     5    1
     5     4     6    1
     6     6     7    1
     7     7     8    1
     8     8     9    1
     9     9    10    1
    10    10    11    1
    11    11    12    1
    12     7    12    1
    13     4    13    1
    14    13    14    2
    15    13    15   am
    16    15    16    1
    17    16    17    1
    18    16    18    1
    19    18    19    1
    20    19    20    1
    21    20    21    1
    22    21    22    1
    23    22    23   am
    24    19    23    1
    25    23    24    2
    26    16    25    1
    27    25    26    1
    28    25    27    1
    29    27    28    2
    30    27    29    1
    31    29    30    1
    32    30    31    1
    33    31    32   ar
    34    32    33   ar
    35    33    34   ar
    36    34    35   ar
    37    35    36   ar
    38    31    36   ar
    39    27    37    1
    40    37    38    1
    41    38    39    1
    42    39    40   ar
    43    40    41   ar
    44    41    42   ar
    45    42    43   ar
    46    43    44   ar
    47    39    44   ar
    48     2    45    1
    49    45    46    1
    50    46    47    1
    51    47    48   ar
    52    48    49   ar
    53    49    50   ar
    54    50    51   ar
    55    51    52   ar
    56    47    52   ar
    57     3    53    1
    58     6    54    1
    59     6    55    1
    60     7    56    1
    61     8    57    1
    62     8    58    1
    63     9    59    1
    64     9    60    1
    65    10    61    1
    66    10    62    1
    67    11    63    1
    68    11    64    1
    69    12    65    1
    70    12    66    1
    71    15    67    1
    72    18    68    1
    73    18    69    1
    74    19    70    1
    75    20    71    1
    76    20    72    1
    77    21    73    1
    78    21    74    1
    79    22    75    1
    80    25    76    1
    81    26    77    1
    82    30    78    1
    83    30    79    1
    84    32    80    1
    85    33    81    1
    86    34    82    1
    87    35    83    1
    88    36    84    1
    89    38    85    1
    90    38    86    1
    91    40    87    1
    92    41    88    1
    93    42    89    1
    94    43    90    1
    95    44    91    1
    96    46    92    1
    97    46    93    1
    98    48    94    1
    99    49    95    1
   100    50    96    1
   101    51    97    1
   102    52    98    1
@<TRIPOS>MOLECULE
*****
 84 86 0 0 0
SMALL
GASTEIGER

@<TRIPOS>ATOM
      1 C           7.8701    8.5852   -4.4921 C.3     1  LIG1       -0.0411
      2 C           7.3863    7.2404   -3.9500 C.3     1  LIG1        0.0542
      3 O           8.2517    6.1400   -4.2874 O.3     1  LIG1       -0.3064
      4 P           8.1297    4.6051   -3.6733 P.3     1  LIG1        0.3627
      5 O           8.3021    4.6283   -2.1807 O.2     1  LIG1       -0.2557
      6 O           6.6811    4.0879   -4.1648 O.3     1  LIG1       -0.3064
      7 C           5.5135    4.6944   -3.6126 C.3     1  LIG1        0.0542
      8 C           5.2857    4.4053   -2.1433 C.3     1  LIG1       -0.0411
      9 C           9.4979    3.6664   -4.5570 C.3     1  LIG1        0.1742
     10 O          10.1024    4.6536   -5.4402 O.3     1  LIG1       -0.3781
     11 C           9.7380    2.1596   -5.2104 C.3     1  LIG1        0.0611
     12 H          10.7458    2.2717   -5.6390 H       1  LIG1        0.0530
     13 C           8.8703    1.7307   -6.5268 C.3     1  LIG1       -0.0203
     14 C           9.2269    0.9282   -7.8866 C.3     1  LIG1        0.0387
     15 C          10.2878    1.5839   -8.7765 C.3     1  LIG1       -0.0262
     16 C          11.5470    0.7660   -8.5331 C.3     1  LIG1        0.0123
     17 N          11.0691   -0.5457   -8.1982 N.am    1  LIG1       -0.3151
     18 C           9.6834   -0.5164   -8.1430 C.2     1  LIG1        0.2162
     19 O           8.9962   -1.4159   -8.6124 O.2     1  LIG1       -0.2755
     20 N           9.9191    1.0154   -4.2057 N.am    1  LIG1       -0.3078
     21 C          10.6855    1.0716   -3.0207 C.2     1  LIG1        0.2338
     22 O          11.0806    2.1483   -2.5681 O.2     1  LIG1       -0.2738
     23 C          11.1367   -0.3264   -2.3206 C.3     1  LIG1        0.1027
     24 H          11.4873   -0.9263   -3.1570 H       1  LIG1        0.0596
     25 C           9.9705   -1.1503   -1.5860 C.3     1  LIG1       -0.0230
     26 C          10.1335   -2.7257   -1.2380 C.3     1  LIG1       -0.0389
     27 C           8.9507   -3.3026   -0.4027 C.3     1  LIG1       -0.0501
     28 C           8.2710   -4.5238   -1.0290 C.3     1  LIG1       -0.0528
     29 C           8.0928   -4.3475   -2.5288 C.3     1  LIG1       -0.0530
     30 C           9.4100   -4.0975   -3.2619 C.3     1  LIG1       -0.0528
     31 C          10.5474   -3.6856   -2.3500 C.3     1  LIG1       -0.0501
     32 N          12.3908   -0.0838   -1.5290 N.am    1  LIG1       -0.2698
     33 C          12.5827   -0.5284   -0.2817 C.2     1  LIG1        0.4012
     34 O          11.6919   -1.2309    0.2826 O.2     1  LIG1       -0.2265
     35 O          13.6751   -0.1865    0.4130 O.3     1  LIG1       -0.4456
     36 C          13.4530   -0.3561    1.8462 C.3     1  LIG1        0.1191
     37 C          13.3592   -1.7551    2.4971 C.ar    1  LIG1       -0.0103
     38 C          12.9334   -2.9331    1.8510 C.ar    1  LIG1       -0.0554
     39 C          12.5807   -4.0935    2.5458 C.ar    1  LIG1       -0.0614
     40 C          12.7591   -4.1495    3.9148 C.ar    1  LIG1       -0.0617
     41 C          13.2793   -3.0394    4.5766 C.ar    1  LIG1       -0.0614
     42 C          13.5536   -1.8497    3.8832 C.ar    1  LIG1       -0.0554
     43 H           7.0054    9.2166   -4.7504 H       1  LIG1        0.0252
     44 H           8.4766    8.4608   -5.3912 H       1  LIG1        0.0252
     45 H           8.4422    9.1448   -3.7465 H       1  LIG1        0.0252
     46 H           6.4430    7.1207   -4.4842 H       1  LIG1        0.0562
     47 H           7.1897    7.3136   -2.8716 H       1  LIG1        0.0562
     48 H           4.6466    4.3937   -4.2067 H       1  LIG1        0.0562
     49 H           5.5537    5.7648   -3.7272 H       1  LIG1        0.0562
     50 H           6.1221    4.7264   -1.5203 H       1  LIG1        0.0252
     51 H           5.1516    3.3349   -1.9889 H       1  LIG1        0.0252
     52 H           4.4074    4.9453   -1.7740 H       1  LIG1        0.0252
     53 H          10.1880    3.6926   -3.7160 H       1  LIG1        0.0739
     54 H          10.0830    5.4865   -4.9138 H       1  LIG1        0.2107
     55 H           8.6225    2.7068   -6.9621 H       1  LIG1        0.0291
     56 H           7.9320    1.2918   -6.1694 H       1  LIG1        0.0291
     57 H           8.2749    0.9625   -8.4445 H       1  LIG1        0.0395
     58 H          10.4112    2.6505   -8.6066 H       1  LIG1        0.0288
     59 H           9.9866    1.4488   -9.8308 H       1  LIG1        0.0288
     60 H          12.1478    1.1387   -7.7046 H       1  LIG1        0.0462
     61 H          12.1631    0.6941   -9.4382 H       1  LIG1        0.0462
     62 H          11.5109   -1.0262   -7.4247 H       1  LIG1        0.1487
     63 H           9.7133    0.0875   -4.5510 H       1  LIG1        0.1491
     64 H           9.0587   -1.0379   -2.1772 H       1  LIG1        0.0290
     65 H           9.7426   -0.6342   -0.6351 H       1  LIG1        0.0290
     66 H          10.9628   -2.8752   -0.5538 H       1  LIG1        0.0301
     67 H           8.2104   -2.5272   -0.1813 H       1  LIG1        0.0268
     68 H           9.3329   -3.6249    0.5796 H       1  LIG1        0.0268
     69 H           7.2982   -4.6905   -0.5508 H       1  LIG1        0.0265
     70 H           8.8631   -5.4283   -0.8315 H       1  LIG1        0.0265
     71 H           7.4196   -3.5015   -2.7072 H       1  LIG1        0.0265
     72 H           7.6023   -5.2318   -2.9519 H       1  LIG1        0.0265
     73 H           9.2617   -3.3302   -4.0268 H       1  LIG1        0.0265
     74 H           9.7103   -5.0134   -3.7862 H       1  LIG1        0.0265
     75 H          11.4036   -3.3126   -2.9184 H       1  LIG1        0.0268
     76 H          10.9179   -4.6020   -1.8575 H       1  LIG1        0.0268
     77 H          13.1709    0.4215   -1.9455 H       1  LIG1        0.1528
     78 H          12.5301    0.2013    2.1115 H       1  LIG1        0.0749
     79 H          14.2586    0.1953    2.3382 H       1  LIG1        0.0749
     80 H          12.8095   -3.0005    0.7775 H       1  LIG1        0.0621
     81 H          12.1636   -4.9362    1.9985 H       1  LIG1        0.0618
     82 H          12.5067   -5.0574    4.4540 H       1  LIG1        0.0618
     83 H          13.4529   -3.0932    5.6468 H       1  LIG1        0.0618
     84 H          13.9147   -0.9901    4.4434 H       1  LIG1        0.0621
@<TRIPOS>BOND
     1     1     2    1
     2     2     3    1
     3     3     4    1
     4     4     5    2
     5     4     6    1
     6     6     7    1
     7     7     8    1
     8     4     9    1
     9     9    10    1
    10    11    13    1
    11    13    14    1
    12    14    15    1
    13    15    16    1
    14    16    17    1
    15    17    18   am
    16    14    18    1
    17    18    19    2
    18    11    20    1
    19    20    21   am
    20    21    22    2
    21    23    25    1
    22    25    26    1
    23    26    27    1
    24    27    28    1
    25    28    29    1
    26    29    30    1
    27    30    31    1
    28    26    31    1
    29    23    32    1
    30    32    33   am
    31    33    34    2
    32    33    35    1
    33    35    36    1
    34    36    37    1
    35    37    38   ar
    36    38    39   ar
    37    39    40   ar
    38    40    41   ar
    39    41    42   ar
    40    37    42   ar
    41    11    12    1
    42    11     9    1
    43    23    24    1
    44    23    21    1
    45     1    43    1
    46     1    44    1
    47     1    45    1
    48     2    46    1
    49     2    47    1
    50     7    48    1
    51     7    49    1
    52     8    50    1
    53     8    51    1
    54     8    52    1
    55     9    53    1
    56    10    54    1
    57    13    55    1
    58    13    56    1
    59    14    57    1
    60    15    58    1
    61    15    59    1
    62    16    60    1
    63    16    61    1
    64    17    62    1
    65    20    63    1
    66    25    64    1
    67    25    65    1
    68    26    66    1
    69    27    67    1
    70    27    68    1
    71    28    69    1
    72    28    70    1
    73    29    71    1
    74    29    72    1
    75    30    73    1
    76    30    74    1
    77    31    75    1
    78    31    76    1
    79    32    77    1
    80    36    78    1
    81    36    79    1
    82    38    80    1
    83    39    81    1
    84    40    82    1
    85    41    83    1
    86    42    84    1
@<TRIPOS>MOLECULE
*****
 78 80 0 0 0
SMALL
GASTEIGER

@<TRIPOS>ATOM
      1 C           3.7772   -0.4306    7.3542 C.3     1  LIG1        0.0458
      2 O           2.4860   -0.1537    7.8573 O.3     1  LIG1       -0.3095
      3 P           1.2811    0.1163    6.8190 P.3     1  LIG1        0.3622
      4 O           1.7114    0.6484    5.4831 O.2     1  LIG1       -0.2557
      5 O           0.5897   -1.3511    6.7192 O.3     1  LIG1       -0.3095
      6 C           1.1097   -2.2771    5.7782 C.3     1  LIG1        0.0458
      7 C           0.0723    1.0982    7.7609 C.3     1  LIG1        0.1742
      8 O          -1.0613    1.4012    6.9254 O.3     1  LIG1       -0.3781
      9 C           0.6305    2.3746    8.4467 C.3     1  LIG1        0.0611
     10 H           1.3336    2.0124    9.2010 H       1  LIG1        0.0530
     11 C          -0.4921    3.1764    9.1734 C.3     1  LIG1       -0.0203
     12 C          -0.0641    4.3387   10.0944 C.3     1  LIG1        0.0387
     13 C           0.8662    3.9560   11.2520 C.3     1  LIG1       -0.0262
     14 C           1.7686    5.1620   11.4476 C.3     1  LIG1        0.0123
     15 N           1.7435    5.8274   10.1850 N.am    1  LIG1       -0.3151
     16 C           0.6934    5.4340    9.4060 C.2     1  LIG1        0.2162
     17 O           0.3961    5.9485    8.3202 O.2     1  LIG1       -0.2755
     18 N           1.3936    3.1950    7.5178 N.am    1  LIG1       -0.3078
     19 C           2.6381    3.7118    7.8250 C.2     1  LIG1        0.2338
     20 O           3.1502    3.6007    8.9380 O.2     1  LIG1       -0.2738
     21 C           3.3537    4.3824    6.6277 C.3     1  LIG1        0.1027
     22 H           3.1598    3.7417    5.7619 H       1  LIG1        0.0596
     23 C           4.8679    4.3855    6.9463 C.3     1  LIG1       -0.0230
     24 C           5.7958    4.7869    5.7825 C.3     1  LIG1       -0.0389
     25 C           7.2755    4.6330    6.1886 C.3     1  LIG1       -0.0501
     26 C           7.7608    3.1798    6.1890 C.3     1  LIG1       -0.0528
     27 C           7.4929    2.5073    4.8454 C.3     1  LIG1       -0.0530
     28 C           6.0294    2.6324    4.4271 C.3     1  LIG1       -0.0528
     29 C           5.5779    4.0882    4.4334 C.3     1  LIG1       -0.0501
     30 N           2.8293    5.7299    6.3752 N.am    1  LIG1       -0.2698
     31 C           1.5797    6.0087    5.8795 C.2     1  LIG1        0.4012
     32 O           0.7942    5.1620    5.4848 O.2     1  LIG1       -0.2265
     33 O           1.4002    7.3619    5.8346 O.3     1  LIG1       -0.4456
     34 C           0.3859    7.8377    4.9384 C.3     1  LIG1        0.1191
     35 C          -0.8316    8.5128    5.5382 C.ar    1  LIG1       -0.0103
     36 C          -0.9135    9.8966    5.7680 C.ar    1  LIG1       -0.0554
     37 C          -2.1423   10.4826    6.1066 C.ar    1  LIG1       -0.0614
     38 C          -3.2871    9.6933    6.2343 C.ar    1  LIG1       -0.0617
     39 C          -3.2068    8.3175    6.0401 C.ar    1  LIG1       -0.0614
     40 C          -1.9868    7.7346    5.7039 C.ar    1  LIG1       -0.0554
     41 H           4.4777    0.3058    7.7560 H       1  LIG1        0.0529
     42 H           3.8210   -0.4011    6.2623 H       1  LIG1        0.0529
     43 H           4.0761   -1.4266    7.6898 H       1  LIG1        0.0529
     44 H           0.5407   -3.2099    5.8480 H       1  LIG1        0.0529
     45 H           2.1605   -2.5020    5.9826 H       1  LIG1        0.0529
     46 H           1.0032   -1.8860    4.7631 H       1  LIG1        0.0529
     47 H          -0.3029    0.4447    8.5561 H       1  LIG1        0.0739
     48 H          -1.4404    0.5505    6.6377 H       1  LIG1        0.2107
     49 H          -1.0586    2.4685    9.7933 H       1  LIG1        0.0291
     50 H          -1.2020    3.5667    8.4313 H       1  LIG1        0.0291
     51 H          -0.9655    4.8178   10.5034 H       1  LIG1        0.0395
     52 H           1.4827    3.0882   11.0069 H       1  LIG1        0.0288
     53 H           0.3147    3.7072   12.1648 H       1  LIG1        0.0288
     54 H           2.7912    4.8725   11.7089 H       1  LIG1        0.0462
     55 H           1.3834    5.8615   12.1920 H       1  LIG1        0.0462
     56 H           2.4408    6.4769    9.8446 H       1  LIG1        0.1487
     57 H           0.9327    3.5698    6.6826 H       1  LIG1        0.1491
     58 H           5.1608    3.4051    7.3497 H       1  LIG1        0.0290
     59 H           5.0545    5.0932    7.7700 H       1  LIG1        0.0290
     60 H           5.6014    5.8504    5.6070 H       1  LIG1        0.0301
     61 H           7.4562    5.0855    7.1697 H       1  LIG1        0.0268
     62 H           7.8838    5.1935    5.4674 H       1  LIG1        0.0268
     63 H           7.2775    2.6109    6.9918 H       1  LIG1        0.0265
     64 H           8.8374    3.1567    6.3986 H       1  LIG1        0.0265
     65 H           7.7802    1.4507    4.8876 H       1  LIG1        0.0265
     66 H           8.1284    2.9777    4.0837 H       1  LIG1        0.0265
     67 H           5.3937    2.0440    5.0976 H       1  LIG1        0.0265
     68 H           5.9050    2.2192    3.4186 H       1  LIG1        0.0265
     69 H           4.5408    4.1717    4.0958 H       1  LIG1        0.0268
     70 H           6.1743    4.6301    3.6855 H       1  LIG1        0.0268
     71 H           3.4358    6.5324    6.4418 H       1  LIG1        0.1528
     72 H           0.0292    7.0391    4.2785 H       1  LIG1        0.0749
     73 H           0.8796    8.5563    4.2749 H       1  LIG1        0.0749
     74 H          -0.0441   10.5384    5.6421 H       1  LIG1        0.0621
     75 H          -2.2174   11.5593    6.2460 H       1  LIG1        0.0618
     76 H          -4.2440   10.1474    6.4776 H       1  LIG1        0.0618
     77 H          -4.0914    7.6921    6.1232 H       1  LIG1        0.0618
     78 H          -1.9405    6.6633    5.5178 H       1  LIG1        0.0621
@<TRIPOS>BOND
     1     1     2    1
     2     2     3    1
     3     3     4    2
     4     3     5    1
     5     5     6    1
     6     3     7    1
     7     7     8    1
     8     9    11    1
     9    11    12    1
    10    12    13    1
    11    13    14    1
    12    14    15    1
    13    15    16   am
    14    12    16    1
    15    16    17    2
    16     9    18    1
    17    18    19   am
    18    19    20    2
    19    21    23    1
    20    23    24    1
    21    24    25    1
    22    25    26    1
    23    26    27    1
    24    27    28    1
    25    28    29    1
    26    24    29    1
    27    21    30    1
    28    30    31   am
    29    31    32    2
    30    31    33    1
    31    33    34    1
    32    34    35    1
    33    35    36   ar
    34    36    37   ar
    35    37    38   ar
    36    38    39   ar
    37    39    40   ar
    38    35    40   ar
    39     9    10    1
    40     9     7    1
    41    21    22    1
    42    21    19    1
    43     1    41    1
    44     1    42    1
    45     1    43    1
    46     6    44    1
    47     6    45    1
    48     6    46    1
    49     7    47    1
    50     8    48    1
    51    11    49    1
    52    11    50    1
    53    12    51    1
    54    13    52    1
    55    13    53    1
    56    14    54    1
    57    14    55    1
    58    15    56    1
    59    18    57    1
    60    23    58    1
    61    23    59    1
    62    24    60    1
    63    25    61    1
    64    25    62    1
    65    26    63    1
    66    26    64    1
    67    27    65    1
    68    27    66    1
    69    28    67    1
    70    28    68    1
    71    29    69    1
    72    29    70    1
    73    30    71    1
    74    34    72    1
    75    34    73    1
    76    36    74    1
    77    37    75    1
    78    38    76    1
    79    39    77    1
    80    40    78    1
@<TRIPOS>MOLECULE
*****
 96 98 0 0 0
SMALL
GASTEIGER

@<TRIPOS>ATOM
      1 C          16.5392   -8.2408    3.4265 C.3     1  LIG1       -0.0652
      2 C          16.8690   -6.9571    2.6400 C.3     1  LIG1       -0.0538
      3 C          16.5432   -6.5752    1.1869 C.3     1  LIG1       -0.0292
      4 C          15.1816   -6.1894    0.8525 C.3     1  LIG1        0.0570
      5 O          14.8842   -5.7329   -0.5197 O.3     1  LIG1       -0.3061
      6 P          15.1546   -4.6271   -1.7306 P.3     1  LIG1        0.3627
      7 O          15.6687   -3.3883   -1.0433 O.2     1  LIG1       -0.2557
      8 O          16.0017   -5.1327   -3.0930 O.3     1  LIG1       -0.3061
      9 C          15.8925   -6.1621   -4.1655 C.3     1  LIG1        0.0570
     10 C          17.3314   -6.6908   -4.5659 C.3     1  LIG1       -0.0292
     11 C          18.3247   -7.6680   -3.7550 C.3     1  LIG1       -0.0538
     12 C          18.2836   -9.2196   -3.8759 C.3     1  LIG1       -0.0652
     13 C          13.2439   -4.3005   -2.8344 C.3     1  LIG1        0.1742
     14 O          12.5761   -3.4675   -1.9090 O.3     1  LIG1       -0.3781
     15 C          12.1217   -5.3998   -3.6127 C.3     1  LIG1        0.0611
     16 H          12.6806   -6.1525   -4.1866 H       1  LIG1        0.0530
     17 C          10.9281   -4.8635   -4.6959 C.3     1  LIG1       -0.0203
     18 C          10.7669   -3.8283   -5.9300 C.3     1  LIG1        0.0387
     19 C          11.3280   -4.0364   -7.3873 C.3     1  LIG1       -0.0262
     20 C          10.1609   -4.1964   -8.3699 C.3     1  LIG1        0.0123
     21 N           9.0107   -4.2028   -7.5447 N.am    1  LIG1       -0.3151
     22 C           9.2528   -3.8566   -6.2461 C.2     1  LIG1        0.2162
     23 O           8.3428   -3.6819   -5.4352 O.2     1  LIG1       -0.2755
     24 N          11.2081   -6.2448   -2.5987 N.am    1  LIG1       -0.3078
     25 C          11.4403   -7.1978   -1.6666 C.2     1  LIG1        0.2338
     26 O          10.5173   -7.7667   -1.0398 O.2     1  LIG1       -0.2738
     27 C          12.7438   -7.5450   -1.2433 C.3     1  LIG1        0.1027
     28 H          12.9957   -8.5677   -1.3487 H       1  LIG1        0.0596
     29 C          12.9590   -7.0563    0.1751 C.3     1  LIG1       -0.0230
     30 C          12.6534   -7.5286    1.6469 C.3     1  LIG1       -0.0389
     31 C          13.3117   -6.8207    2.9590 C.3     1  LIG1       -0.0501
     32 C          13.0968   -7.5434    4.2853 C.3     1  LIG1       -0.0528
     33 C          13.1427   -9.0636    4.2499 C.3     1  LIG1       -0.0530
     34 C          12.7076   -9.7307    2.9543 C.3     1  LIG1       -0.0528
     35 C          13.0137   -9.0100    1.6691 C.3     1  LIG1       -0.0501
     36 N          13.7293   -6.8469   -2.1193 N.am    1  LIG1       -0.2698
     37 C          14.8913   -7.4057   -2.1337 C.2     1  LIG1        0.4012
     38 O          16.1411   -6.9262   -1.7732 O.2     1  LIG1       -0.2265
     39 O          14.7462   -8.4392   -2.7488 O.3     1  LIG1       -0.4456
     40 C          15.8899   -9.1903   -2.6886 C.3     1  LIG1        0.1191
     41 C          15.9197  -10.1169   -1.5965 C.ar    1  LIG1       -0.0103
     42 C          14.6565  -10.5499   -1.2694 C.ar    1  LIG1       -0.0554
     43 C          14.5087  -11.5843   -0.4278 C.ar    1  LIG1       -0.0614
     44 C          15.6423  -12.2167    0.0586 C.ar    1  LIG1       -0.0617
     45 C          16.9289  -11.7923   -0.2748 C.ar    1  LIG1       -0.0614
     46 C          17.0802  -10.6914   -1.0728 C.ar    1  LIG1       -0.0554
     47 H          17.0830   -9.1156    3.0662 H       1  LIG1        0.0230
     48 H          15.4922   -8.5104    3.4635 H       1  LIG1        0.0230
     49 H          16.8435   -8.1077    4.4825 H       1  LIG1        0.0230
     50 H          17.9527   -6.9474    2.5946 H       1  LIG1        0.0263
     51 H          16.5134   -6.1199    3.2469 H       1  LIG1        0.0263
     52 H          16.8536   -7.3429    0.4675 H       1  LIG1        0.0287
     53 H          16.9185   -5.5878    0.9996 H       1  LIG1        0.0287
     54 H          14.5901   -5.5603    1.5081 H       1  LIG1        0.0565
     55 H          14.8966   -7.2443    1.1386 H       1  LIG1        0.0565
     56 H          15.2417   -5.7534   -4.9632 H       1  LIG1        0.0565
     57 H          15.3407   -7.1050   -4.1447 H       1  LIG1        0.0565
     58 H          17.8863   -5.7546   -4.6391 H       1  LIG1        0.0287
     59 H          17.2293   -7.1658   -5.5443 H       1  LIG1        0.0287
     60 H          18.4445   -7.3539   -2.7070 H       1  LIG1        0.0263
     61 H          19.3085   -7.4992   -4.2045 H       1  LIG1        0.0263
     62 H          17.6186   -9.7638   -3.2660 H       1  LIG1        0.0230
     63 H          19.0636   -9.7265   -3.2881 H       1  LIG1        0.0230
     64 H          17.8581   -9.6067   -4.8043 H       1  LIG1        0.0230
     65 H          13.7850   -3.7849   -3.6364 H       1  LIG1        0.0739
     66 H          12.5256   -3.9711   -1.0757 H       1  LIG1        0.2107
     67 H          10.1210   -4.5490   -4.0094 H       1  LIG1        0.0291
     68 H          10.5239   -5.8065   -5.1150 H       1  LIG1        0.0291
     69 H          10.9901   -2.8045   -5.6090 H       1  LIG1        0.0395
     70 H          12.0092   -4.8811   -7.4978 H       1  LIG1        0.0288
     71 H          11.8715   -3.1379   -7.7205 H       1  LIG1        0.0288
     72 H          10.2085   -5.1304   -8.9374 H       1  LIG1        0.0462
     73 H          10.0668   -3.3775   -9.1026 H       1  LIG1        0.0462
     74 H           8.0742   -4.4573   -7.8407 H       1  LIG1        0.1487
     75 H          10.2141   -6.2784   -2.8067 H       1  LIG1        0.1491
     76 H          12.9461   -5.9570    0.1706 H       1  LIG1        0.0290
     77 H          13.8919   -7.5791    0.0203 H       1  LIG1        0.0290
     78 H          11.5952   -7.3027    1.7423 H       1  LIG1        0.0301
     79 H          12.9801   -5.7754    3.0625 H       1  LIG1        0.0268
     80 H          14.3958   -6.7191    2.9914 H       1  LIG1        0.0268
     81 H          12.1327   -7.2171    4.6683 H       1  LIG1        0.0265
     82 H          13.8540   -7.1985    5.0171 H       1  LIG1        0.0265
     83 H          12.4882   -9.4196    5.0498 H       1  LIG1        0.0265
     84 H          14.1280   -9.4459    4.5540 H       1  LIG1        0.0265
     85 H          11.6338   -9.9141    2.9897 H       1  LIG1        0.0265
     86 H          13.2072  -10.7057    2.8951 H       1  LIG1        0.0265
     87 H          12.4990   -9.4799    0.8243 H       1  LIG1        0.0268
     88 H          14.0842   -9.1828    1.4808 H       1  LIG1        0.0268
     89 H          13.5978   -5.9254   -1.7628 H       1  LIG1        0.1528
     90 H          16.7637   -8.5229   -2.4321 H       1  LIG1        0.0749
     91 H          15.9261   -9.5804   -3.6798 H       1  LIG1        0.0749
     92 H          13.8017  -10.1396   -1.7858 H       1  LIG1        0.0621
     93 H          13.4996  -11.9246   -0.2667 H       1  LIG1        0.0618
     94 H          15.5096  -13.0975    0.6585 H       1  LIG1        0.0618
     95 H          17.8055  -12.3575    0.0182 H       1  LIG1        0.0618
     96 H          18.0918  -10.3952   -1.3535 H       1  LIG1        0.0621
@<TRIPOS>BOND
     1     1     2    1
     2     2     3    1
     3     3     4    1
     4     4     5    1
     5     5     6    1
     6     6     7    2
     7     6     8    1
     8     8     9    1
     9     9    10    1
    10    10    11    1
    11    11    12    1
    12     6    13    1
    13    13    14    1
    14    15    17    1
    15    17    18    1
    16    18    19    1
    17    19    20    1
    18    20    21    1
    19    21    22   am
    20    18    22    1
    21    22    23    2
    22    15    24    1
    23    24    25   am
    24    25    26    2
    25    27    29    1
    26    29    30    1
    27    30    31    1
    28    31    32    1
    29    32    33    1
    30    33    34    1
    31    34    35    1
    32    30    35    1
    33    27    36    1
    34    36    37   am
    35    37    38    2
    36    37    39    1
    37    39    40    1
    38    40    41    1
    39    41    42   ar
    40    42    43   ar
    41    43    44   ar
    42    44    45   ar
    43    45    46   ar
    44    41    46   ar
    45    15    16    1
    46    15    13    1
    47    27    28    1
    48    27    25    1
    49     1    47    1
    50     1    48    1
    51     1    49    1
    52     2    50    1
    53     2    51    1
    54     3    52    1
    55     3    53    1
    56     4    54    1
    57     4    55    1
    58     9    56    1
    59     9    57    1
    60    10    58    1
    61    10    59    1
    62    11    60    1
    63    11    61    1
    64    12    62    1
    65    12    63    1
    66    12    64    1
    67    13    65    1
    68    14    66    1
    69    17    67    1
    70    17    68    1
    71    18    69    1
    72    19    70    1
    73    19    71    1
    74    20    72    1
    75    20    73    1
    76    21    74    1
    77    24    75    1
    78    29    76    1
    79    29    77    1
    80    30    78    1
    81    31    79    1
    82    31    80    1
    83    32    81    1
    84    32    82    1
    85    33    83    1
    86    33    84    1
    87    34    85    1
    88    34    86    1
    89    35    87    1
    90    35    88    1
    91    36    89    1
    92    40    90    1
    93    40    91    1
    94    42    92    1
    95    43    93    1
    96    44    94    1
    97    45    95    1
    98    46    96    1
@<TRIPOS>MOLECULE
*****
 84 86 0 0 0
SMALL
GASTEIGER

@<TRIPOS>ATOM
      1 O           6.3962    3.5846   -0.5081 O.2     1  LIG1       -0.2265
      2 C           5.2340    3.9673   -0.5084 C.2     1  LIG1        0.4012
      3 N           4.3095    3.6330   -1.4915 N.am    1  LIG1       -0.2698
      4 C           3.2255    4.5506   -1.8947 C.3     1  LIG1        0.1027
      5 H           3.6237    5.5509   -1.6709 H       1  LIG1        0.0596
      6 C           2.9461    4.5477   -3.4475 C.3     1  LIG1       -0.0230
      7 C           2.4774    3.2142   -4.1130 C.3     1  LIG1       -0.0389
      8 C           1.1227    2.6593   -3.6273 C.3     1  LIG1       -0.0501
      9 C          -0.1572    3.0451   -4.3783 C.3     1  LIG1       -0.0528
     10 C           0.0169    2.9069   -5.8791 C.3     1  LIG1       -0.0530
     11 C           1.2265    3.7151   -6.3295 C.3     1  LIG1       -0.0528
     12 C           2.5044    3.1952   -5.6653 C.3     1  LIG1       -0.0501
     13 C           1.8863    4.5033   -1.1071 C.2     1  LIG1        0.2338
     14 O           0.8149    4.7627   -1.6312 O.2     1  LIG1       -0.2738
     15 N           1.9087    4.3703    0.2395 N.am    1  LIG1       -0.3078
     16 C           0.7086    4.2648    1.0884 C.3     1  LIG1        0.0611
     17 H           0.1024    3.4201    0.7473 H       1  LIG1        0.0530
     18 C           1.2368    3.8487    2.5895 C.3     1  LIG1       -0.0203
     19 C           2.0009    2.4285    2.8620 C.3     1  LIG1        0.0387
     20 C           1.3998    1.0327    2.6785 C.3     1  LIG1       -0.0262
     21 C           2.5719    0.0784    2.3167 C.3     1  LIG1        0.0123
     22 N           3.4896    0.9831    1.6916 N.am    1  LIG1       -0.3151
     23 C           3.1438    2.2269    1.8756 C.2     1  LIG1        0.2162
     24 O           3.6598    2.9598    1.2374 O.2     1  LIG1       -0.2755
     25 C          -0.1740    5.6364    0.9513 C.3     1  LIG1        0.1742
     26 O           0.6021    6.7718    1.3582 O.3     1  LIG1       -0.3781
     27 P          -1.1911    6.2018   -0.5855 P.3     1  LIG1        0.3632
     28 O          -2.2113    5.1669   -0.9890 O.2     1  LIG1       -0.2557
     29 O          -1.9805    7.5646   -0.1082 O.3     1  LIG1       -0.2971
     30 C          -3.1555    7.8808   -0.8947 C.3     1  LIG1        0.1519
     31 C          -3.8459    9.2351   -0.6850 C.3     1  LIG1        0.4133
     32 F          -4.8144    9.1571    0.2595 F       1  LIG1       -0.1682
     33 F          -3.0150   10.2373   -0.3388 F       1  LIG1       -0.1682
     34 F          -4.4650    9.6139   -1.8378 F       1  LIG1       -0.1682
     35 O          -0.4177    6.7952   -1.8844 O.3     1  LIG1       -0.2971
     36 C           0.6875    7.6794   -1.9792 C.3     1  LIG1        0.1519
     37 C           0.3806    9.1738   -1.9426 C.3     1  LIG1        0.4133
     38 F          -0.8953    9.4454   -1.6216 F       1  LIG1       -0.1682
     39 F           1.1805    9.7764   -1.0312 F       1  LIG1       -0.1682
     40 F           0.6284    9.7616   -3.1379 F       1  LIG1       -0.1682
     41 O           4.6290    4.6715    0.4750 O.3     1  LIG1       -0.4456
     42 C           5.0933    4.7857    1.8592 C.3     1  LIG1        0.1191
     43 C           5.9127    6.0011    1.9231 C.ar    1  LIG1       -0.0103
     44 C           6.5605    6.3891    3.0855 C.ar    1  LIG1       -0.0554
     45 C           7.1851    7.6232    3.0727 C.ar    1  LIG1       -0.0614
     46 C           7.1361    8.4354    1.9261 C.ar    1  LIG1       -0.0617
     47 C           6.4623    8.0447    0.7846 C.ar    1  LIG1       -0.0614
     48 C           5.8564    6.8314    0.7960 C.ar    1  LIG1       -0.0554
     49 H           3.9937    2.6852   -1.3342 H       1  LIG1        0.1528
     50 H           3.8811    4.8650   -3.9321 H       1  LIG1        0.0290
     51 H           2.2129    5.3331   -3.6674 H       1  LIG1        0.0290
     52 H           3.2401    2.4853   -3.8093 H       1  LIG1        0.0301
     53 H           0.9717    2.8313   -2.5708 H       1  LIG1        0.0268
     54 H           1.2001    1.5719   -3.7013 H       1  LIG1        0.0268
     55 H          -0.5053    4.0573   -4.1311 H       1  LIG1        0.0265
     56 H          -0.9541    2.3625   -4.0548 H       1  LIG1        0.0265
     57 H          -0.8897    3.2339   -6.4028 H       1  LIG1        0.0265
     58 H           0.1538    1.8460   -6.1275 H       1  LIG1        0.0265
     59 H           1.0815    4.7721   -6.0821 H       1  LIG1        0.0265
     60 H           1.3143    3.6418   -7.4203 H       1  LIG1        0.0265
     61 H           3.3809    3.7132   -6.0707 H       1  LIG1        0.0268
     62 H           2.6168    2.1434   -5.9716 H       1  LIG1        0.0268
     63 H           2.7829    3.9839    0.5870 H       1  LIG1        0.1491
     64 H           0.4314    3.9454    3.3252 H       1  LIG1        0.0291
     65 H           1.9712    4.6265    2.8734 H       1  LIG1        0.0291
     66 H           2.4626    2.5048    3.8782 H       1  LIG1        0.0395
     67 H           0.6856    1.0722    1.8491 H       1  LIG1        0.0288
     68 H           0.9025    0.6570    3.5791 H       1  LIG1        0.0288
     69 H           2.3250   -0.6897    1.5789 H       1  LIG1        0.0462
     70 H           3.1417   -0.3198    3.1544 H       1  LIG1        0.0462
     71 H           4.2928    0.7855    1.0922 H       1  LIG1        0.1487
     72 H          -0.9907    5.5291    1.6784 H       1  LIG1        0.0739
     73 H           1.2742    6.8811    0.6673 H       1  LIG1        0.2107
     74 H          -3.8947    7.1016   -0.6875 H       1  LIG1        0.0655
     75 H          -2.8897    7.8224   -1.9555 H       1  LIG1        0.0655
     76 H           1.1624    7.4778   -2.9524 H       1  LIG1        0.0655
     77 H           1.4525    7.4296   -1.2438 H       1  LIG1        0.0655
     78 H           5.5329    3.8784    2.3112 H       1  LIG1        0.0749
     79 H           4.1947    5.0175    2.4584 H       1  LIG1        0.0749
     80 H           6.5346    5.7750    3.9859 H       1  LIG1        0.0621
     81 H           7.6858    7.9767    3.9661 H       1  LIG1        0.0618
     82 H           7.6065    9.4066    1.9223 H       1  LIG1        0.0618
     83 H           6.3557    8.6480   -0.1071 H       1  LIG1        0.0618
     84 H           5.2892    6.5599   -0.0887 H       1  LIG1        0.0621
@<TRIPOS>BOND
     1     1     2    2
     2     2     3   am
     3     3     4    1
     4     4     5    1
     5     4     6    1
     6     6     7    1
     7     7     8    1
     8     8     9    1
     9     9    10    1
    10    10    11    1
    11    11    12    1
    12     7    12    1
    13     4    13    1
    14    13    14    2
    15    13    15   am
    16    15    16    1
    17    16    17    1
    18    16    18    1
    19    18    19    1
    20    19    20    1
    21    20    21    1
    22    21    22    1
    23    22    23   am
    24    19    23    1
    25    23    24    2
    26    16    25    1
    27    25    26    1
    28    25    27    1
    29    27    28    2
    30    27    29    1
    31    29    30    1
    32    30    31    1
    33    31    32    1
    34    31    33    1
    35    31    34    1
    36    27    35    1
    37    35    36    1
    38    36    37    1
    39    37    38    1
    40    37    39    1
    41    37    40    1
    42     2    41    1
    43    41    42    1
    44    42    43    1
    45    43    44   ar
    46    44    45   ar
    47    45    46   ar
    48    46    47   ar
    49    47    48   ar
    50    43    48   ar
    51     3    49    1
    52     6    50    1
    53     6    51    1
    54     7    52    1
    55     8    53    1
    56     8    54    1
    57     9    55    1
    58     9    56    1
    59    10    57    1
    60    10    58    1
    61    11    59    1
    62    11    60    1
    63    12    61    1
    64    12    62    1
    65    15    63    1
    66    18    64    1
    67    18    65    1
    68    19    66    1
    69    20    67    1
    70    20    68    1
    71    21    69    1
    72    21    70    1
    73    22    71    1
    74    25    72    1
    75    26    73    1
    76    30    74    1
    77    30    75    1
    78    36    76    1
    79    36    77    1
    80    42    78    1
    81    42    79    1
    82    44    80    1
    83    45    81    1
    84    46    82    1
    85    47    83    1
    86    48    84    1
@<TRIPOS>MOLECULE
*****
 82 84 0 0 0
SMALL
GASTEIGER

@<TRIPOS>ATOM
      1 C           7.1730   -9.3876    5.0957 C.3     0  UNK0       -0.0253
      2 C           7.3761  -10.2322    3.8397 C.3     0  UNK0        0.1068
      3 C           8.4563   -9.5829    2.9498 C.3     0  UNK0       -0.0253
      4 C           7.8230  -11.6545    4.1710 C.3     0  UNK0       -0.0253
      5 O           6.1691  -10.2868    3.0486 O.3     0  UNK0       -0.4444
      6 C           5.1125  -11.0767    3.3825 C.2     0  UNK0        0.4050
      7 O           4.9479  -11.6095    4.4842 O.2     0  UNK0       -0.2261
      8 N           4.2817  -11.3470    2.3359 N.am    0  UNK0       -0.2511
      9 C           4.1317  -10.5813    1.1659 C.ar    0  UNK0        0.0368
     10 C           4.5044   -9.2352    1.1474 C.ar    0  UNK0       -0.0404
     11 C           4.2197   -8.4289    0.0579 C.ar    0  UNK0       -0.0596
     12 C           3.5857   -8.9675   -1.0489 C.ar    0  UNK0       -0.0552
     13 C           3.2931  -10.3343   -1.1076 C.ar    0  UNK0       -0.0085
     14 C           2.9755  -10.9224   -2.4608 C.3     0  UNK0        0.1192
     15 O           2.0288  -10.1930   -3.2558 O.3     0  UNK0       -0.4456
     16 C           2.5085   -9.8904   -4.4971 C.2     0  UNK0        0.4012
     17 O           3.4448   -9.1763   -4.7311 O.2     0  UNK0       -0.2265
     18 N           1.7868  -10.5176   -5.5039 N.am    1  PHE1       -0.2698
     19 CA          0.8154  -11.5881   -5.3529 C.3     1  PHE1        0.1027
     20 HA          1.1850  -12.2228   -4.5361 H       1  PHE1        0.0596
     21 CB         -0.5832  -11.0997   -4.9322 C.3     1  PHE1       -0.0230
     22 CG         -1.3765  -10.2235   -5.9360 C.3     1  PHE1       -0.0389
     23 CD1        -2.8136  -10.0085   -5.4130 C.3     1  PHE1       -0.0501
     24 CE1        -2.8926   -9.0651   -4.2093 C.3     1  PHE1       -0.0528
     25 CZ         -2.2226   -7.7282   -4.4953 C.3     1  PHE1       -0.0530
     26 CE2        -0.8017   -7.9236   -5.0151 C.3     1  PHE1       -0.0528
     27 CD2        -0.7750   -8.8429   -6.2366 C.3     1  PHE1       -0.0501
     28 C           0.7772  -12.5275   -6.5967 C.2     1  PHE1        0.2340
     29 O          -0.2137  -13.2031   -6.8647 O.2     1  PHE1       -0.2738
     30 N           1.9706  -12.6687   -7.2895 N.am    2  UNK2       -0.3044
     31 C           2.1456  -13.6029   -8.4302 C.3     2  UNK2        0.0791
     32 H           1.9998  -14.6212   -8.0552 H       2  UNK2        0.0574
     33 C           3.6021  -13.4902   -8.8858 C.2     2  UNK2        0.1404
     34 O           4.0249  -12.6274   -9.6524 O.2     2  UNK2       -0.2991
     35 C           1.1575  -13.2973   -9.5881 C.3     2  UNK2       -0.0167
     36 C           1.2749  -14.1849  -10.8412 C.3     2  UNK2        0.0390
     37 H           2.2862  -14.1636  -11.2583 H       2  UNK2        0.0395
     38 C           0.2632  -13.8165  -11.9514 C.3     2  UNK2       -0.0262
     39 C          -0.9461  -14.6915  -11.6786 C.3     2  UNK2        0.0123
     40 N          -0.3676  -15.8590  -11.0903 N.am    2  UNK2       -0.3151
     41 C           0.8714  -15.6148  -10.5374 C.2     2  UNK2        0.2162
     42 O           1.5156  -16.4057   -9.8697 O.2     2  UNK2       -0.2755
     43 C           3.5412  -11.1428    0.0256 C.ar    0  UNK0       -0.0340
     44 H           8.0985   -9.3241    5.6780 H       0  UNK0        0.0268
     45 H           6.3953   -9.8126    5.7365 H       0  UNK0        0.0268
     46 H           6.8507   -8.3694    4.8468 H       0  UNK0        0.0268
     47 H           9.4462   -9.6469    3.4161 H       0  UNK0        0.0268
     48 H           8.2489   -8.5242    2.7520 H       0  UNK0        0.0268
     49 H           8.5095  -10.0737    1.9701 H       0  UNK0        0.0268
     50 H           8.8260  -11.6732    4.5999 H       0  UNK0        0.0268
     51 H           7.7962  -12.2781    3.2697 H       0  UNK0        0.0268
     52 H           7.1541  -12.1207    4.8986 H       0  UNK0        0.0268
     53 H           3.6701  -12.1372    2.4889 H       0  UNK0        0.1582
     54 H           4.9772   -8.7562    1.9974 H       0  UNK0        0.0636
     55 H           4.5035   -7.3824    0.0793 H       0  UNK0        0.0618
     56 H           3.3776   -8.3269   -1.9010 H       0  UNK0        0.0621
     57 H           2.5589  -11.9273   -2.3549 H       0  UNK0        0.0749
     58 H           3.9334  -10.9959   -2.9883 H       0  UNK0        0.0749
     59 H           1.9733  -10.1519   -6.4288 H       1  PHE1        0.1528
     60 HB1        -0.5042  -10.5807   -3.9712 H       1  PHE1        0.0290
     61 HB2        -1.1897  -11.9936   -4.7272 H       1  PHE1        0.0290
     62 HG         -1.4488  -10.7757   -6.8821 H       1  PHE1        0.0301
     63 HD11       -3.2516  -10.9726   -5.1384 H       1  PHE1        0.0268
     64 HD12       -3.4239   -9.5960   -6.2271 H       1  PHE1        0.0268
     65 HE11       -2.4211   -9.5354   -3.3386 H       1  PHE1        0.0265
     66 HE12       -3.9389   -8.8873   -3.9372 H       1  PHE1        0.0265
     67 HZ1        -2.2121   -7.1179   -3.5844 H       1  PHE1        0.0265
     68 HZ2        -2.8177   -7.1806   -5.2367 H       1  PHE1        0.0265
     69 HE21       -0.1844   -8.3471   -4.2157 H       1  PHE1        0.0265
     70 HE22       -0.3684   -6.9519   -5.2719 H       1  PHE1        0.0265
     71 HD21        0.2374   -8.9215   -6.6363 H       1  PHE1        0.0268
     72 HD22       -1.3633   -8.3779   -7.0401 H       1  PHE1        0.0268
     73 H           2.7896  -12.1951   -6.9202 H       2  UNK2        0.1494
     74 H           4.3105  -14.1642   -8.3701 H       2  UNK2        0.1046
     75 H           1.2742  -12.2476   -9.8859 H       2  UNK2        0.0294
     76 H           0.1374  -13.3966   -9.2043 H       2  UNK2        0.0294
     77 H           0.6890  -14.1019  -12.9235 H       2  UNK2        0.0288
     78 H           0.0080  -12.7543  -12.0080 H       2  UNK2        0.0288
     79 H          -1.4964  -14.9579  -12.5858 H       2  UNK2        0.0462
     80 H          -1.6311  -14.2403  -10.9542 H       2  UNK2        0.0462
     81 H          -0.8555  -16.7286  -10.9112 H       2  UNK2        0.1487
     82 H           3.3452  -12.2143   -0.0043 H       0  UNK0        0.0640
@<TRIPOS>BOND
     1     1     2    1
     2     2     3    1
     3     2     4    1
     4     2     5    1
     5     5     6    1
     6     6     7    2
     7     6     8   am
     8     8     9    1
     9     9    10   ar
    10    10    11   ar
    11    11    12   ar
    12    12    13   ar
    13    13    14    1
    14    14    15    1
    15    15    16    1
    16    16    17    2
    17    16    18   am
    18    18    19    1
    19    19    20    1
    20    19    21    1
    21    21    22    1
    22    22    23    1
    23    23    24    1
    24    24    25    1
    25    25    26    1
    26    26    27    1
    27    22    27    1
    28    19    28    1
    29    28    29    2
    30    28    30   am
    31    31    33    1
    32    33    34    2
    33    31    35    1
    34    36    38    1
    35    38    39    1
    36    39    40    1
    37    40    41   am
    38    36    41    1
    39    41    42    2
    40    13    43   ar
    41     9    43   ar
    42    31    32    1
    43    31    30    1
    44    36    37    1
    45    36    35    1
    46     1    44    1
    47     1    45    1
    48     1    46    1
    49     3    47    1
    50     3    48    1
    51     3    49    1
    52     4    50    1
    53     4    51    1
    54     4    52    1
    55     8    53    1
    56    10    54    1
    57    11    55    1
    58    12    56    1
    59    14    57    1
    60    14    58    1
    61    18    59    1
    62    21    60    1
    63    21    61    1
    64    22    62    1
    65    23    63    1
    66    23    64    1
    67    24    65    1
    68    24    66    1
    69    25    67    1
    70    25    68    1
    71    26    69    1
    72    26    70    1
    73    27    71    1
    74    27    72    1
    75    30    73    1
    76    33    74    1
    77    35    75    1
    78    35    76    1
    79    38    77    1
    80    38    78    1
    81    39    79    1
    82    39    80    1
    83    40    81    1
    84    43    82    1
@<TRIPOS>MOLECULE
*****
 71 72 0 0 0
SMALL
GASTEIGER

@<TRIPOS>ATOM
      1 O           7.2440   -1.0789   -4.4664 O.2     1  LIG1        0.0000
      2 C           7.6413   -2.1753   -4.1303 C.2     1  LIG1        0.0000
      3 N           8.3636   -2.4347   -2.9601 N.am    1  LIG1        0.0000
      4 C           8.7791   -3.7825   -2.3517 C.3     1  LIG1        0.0000
      5 H           9.6339   -3.5236   -1.7181 H       1  LIG1        0.0000
      6 C           7.7252   -4.4786   -1.4006 C.3     1  LIG1        0.0000
      7 C           7.5290   -3.9080    0.0393 C.3     1  LIG1        0.0000
      8 C           6.7997   -2.5584    0.1293 C.3     1  LIG1        0.0000
      9 C           5.3019   -2.6658   -0.1879 C.3     1  LIG1        0.0000
     10 C           4.5908   -3.6593    0.7330 C.3     1  LIG1        0.0000
     11 C           5.2779   -5.0197    0.7051 C.3     1  LIG1        0.0000
     12 C           6.7847   -4.9159    0.9620 C.3     1  LIG1        0.0000
     13 C           9.3617   -4.8401   -3.4185 C.2     1  LIG1        0.0000
     14 O           9.0672   -6.0191   -3.3528 O.2     1  LIG1        0.0000
     15 N          10.3305   -4.3428   -4.2952 N.am    1  LIG1        0.0000
     16 C          11.0526   -5.0965   -5.3888 C.3     1  LIG1        0.0000
     17 H          11.6261   -4.2557   -5.8174 H       1  LIG1        0.0000
     18 C          12.1908   -5.9736   -4.8074 C.3     1  LIG1        0.0000
     19 C          13.1144   -6.7765   -5.7379 C.3     1  LIG1        0.0000
     20 H          12.5203   -7.4989   -6.3087 H       1  LIG1        0.0000
     21 C          14.1565   -7.5887   -4.9500 C.3     1  LIG1        0.0000
     22 C          15.1070   -8.0501   -6.0383 C.3     1  LIG1        0.0000
     23 N          15.1506   -6.9122   -6.9081 N.am    1  LIG1        0.0000
     24 C          14.0605   -6.0580   -6.7118 C.2     1  LIG1        0.0000
     25 O          13.9405   -4.9662   -7.2330 O.2     1  LIG1        0.0000
     26 C          10.2974   -5.5859   -6.6638 C.3     1  LIG1        0.0000
     27 O          11.2641   -6.0881   -7.6406 O.3     1  LIG1        0.0000
     28 S           8.8785   -6.7247   -6.5553 S.3     1  LIG1        0.0000
     29 O           7.8171   -6.0564   -5.8270 O.2     1  LIG1        0.0000
     30 O           8.5614   -6.9122   -7.9739 O.2     1  LIG1        0.0000
     31 O           9.4332   -7.9315   -5.9398 O.co2   1  LIG1       -1.0000
     32 O           7.4976   -3.3883   -4.7297 O.3     1  LIG1        0.0000
     33 C           6.3995   -3.5605   -5.6015 C.3     1  LIG1        0.0000
     34 C           6.5132   -2.7361   -6.8307 C.ar    1  LIG1        0.0000
     35 C           7.5775   -2.8660   -7.7404 C.ar    1  LIG1        0.0000
     36 C           7.5626   -2.1531   -8.9341 C.ar    1  LIG1        0.0000
     37 C           6.5665   -1.1974   -9.1434 C.ar    1  LIG1        0.0000
     38 C           5.5924   -0.9589   -8.1669 C.ar    1  LIG1        0.0000
     39 C           5.5165   -1.7883   -7.0571 C.ar    1  LIG1        0.0000
     40 NA          0.7060   -4.4997   -1.4679 Na      2  LIG2        0.0000
     41 H           8.3321   -1.6476   -2.3512 H       1  LIG1        0.0000
     42 H           8.1235   -5.4895   -1.2329 H       1  LIG1        0.0000
     43 H           6.7608   -4.6087   -1.9003 H       1  LIG1        0.0000
     44 H           8.5360   -3.7804    0.4598 H       1  LIG1        0.0000
     45 H           7.2671   -1.8147   -0.5170 H       1  LIG1        0.0000
     46 H           6.9264   -2.1735    1.1536 H       1  LIG1        0.0000
     47 H           5.1620   -2.9755   -1.2304 H       1  LIG1        0.0000
     48 H           4.8238   -1.6809   -0.1007 H       1  LIG1        0.0000
     49 H           3.5484   -3.7679    0.4109 H       1  LIG1        0.0000
     50 H           4.5579   -3.2891    1.7674 H       1  LIG1        0.0000
     51 H           5.0931   -5.4879   -0.2671 H       1  LIG1        0.0000
     52 H           4.8209   -5.6754    1.4581 H       1  LIG1        0.0000
     53 H           7.2326   -5.9126    0.8810 H       1  LIG1        0.0000
     54 H           6.9257   -4.6028    2.0065 H       1  LIG1        0.0000
     55 H          10.8408   -3.5551   -3.9290 H       1  LIG1        0.0000
     56 H          11.7303   -6.6837   -4.1138 H       1  LIG1        0.0000
     57 H          12.8259   -5.3140   -4.1987 H       1  LIG1        0.0000
     58 H          13.7130   -8.4162   -4.3936 H       1  LIG1        0.0000
     59 H          14.6981   -6.9394   -4.2477 H       1  LIG1        0.0000
     60 H          14.7160   -8.9098   -6.5922 H       1  LIG1        0.0000
     61 H          16.1057   -8.2845   -5.6607 H       1  LIG1        0.0000
     62 H          15.8982   -6.6987   -7.5590 H       1  LIG1        0.0000
     63 H           9.9090   -4.6918   -7.1505 H       1  LIG1        0.0000
     64 H          10.8560   -6.9384   -7.9195 H       1  LIG1        0.0000
     65 H           5.5314   -3.2825   -5.0106 H       1  LIG1        0.0000
     66 H           6.1983   -4.5990   -5.8975 H       1  LIG1        0.0000
     67 H           8.4069   -3.5248   -7.5216 H       1  LIG1        0.0000
     68 H           8.3333   -2.3442   -9.6795 H       1  LIG1        0.0000
     69 H           6.5558   -0.6262  -10.0657 H       1  LIG1        0.0000
     70 H           4.9096   -0.1206   -8.2528 H       1  LIG1        0.0000
     71 H           4.7266   -1.6897   -6.3169 H       1  LIG1        0.0000
@<TRIPOS>BOND
     1     1     2    2
     2     2     3   am
     3     3     4    1
     4     4     5    1
     5     4     6    1
     6     6     7    1
     7     7     8    1
     8     8     9    1
     9     9    10    1
    10    10    11    1
    11    11    12    1
    12     7    12    1
    13     4    13    1
    14    13    14    2
    15    13    15   am
    16    15    16    1
    17    16    17    1
    18    16    18    1
    19    19    21    1
    20    21    22    1
    21    22    23    1
    22    23    24   am
    23    19    24    1
    24    24    25    2
    25    16    26    1
    26    26    27    1
    27    26    28    1
    28    28    29    2
    29    28    30    2
    30    28    31    1
    31     2    32    1
    32    32    33    1
    33    33    34    1
    34    34    35   ar
    35    35    36   ar
    36    36    37   ar
    37    37    38   ar
    38    38    39   ar
    39    34    39   ar
    40    19    20    1
    41    19    18    1
    42     3    41    1
    43     6    42    1
    44     6    43    1
    45     7    44    1
    46     8    45    1
    47     8    46    1
    48     9    47    1
    49     9    48    1
    50    10    49    1
    51    10    50    1
    52    11    51    1
    53    11    52    1
    54    12    53    1
    55    12    54    1
    56    15    55    1
    57    18    56    1
    58    18    57    1
    59    21    58    1
    60    21    59    1
    61    22    60    1
    62    22    61    1
    63    23    62    1
    64    26    63    1
    65    27    64    1
    66    33    65    1
    67    33    66    1
    68    35    67    1
    69    36    68    1
    70    37    69    1
    71    38    70    1
    72    39    71    1
@<TRIPOS>MOLECULE
*****
 71 73 0 0 0
SMALL
GASTEIGER

@<TRIPOS>ATOM
      1 O           7.1032    2.6346    3.2530 O.2     1  LIG1       -0.2265
      2 C           7.0496    1.7216    4.0920 C.2     1  LIG1        0.4012
      3 N           6.9319    0.4109    3.8116 N.am    1  LIG1       -0.2698
      4 C           6.6386   -0.1425    2.4930 C.3     1  LIG1        0.1027
      5 H           5.9677    0.5508    1.9778 H       1  LIG1        0.0596
      6 C           7.9100   -0.4121    1.5905 C.3     1  LIG1       -0.0230
      7 C           8.7916    0.7685    1.0683 C.3     1  LIG1       -0.0389
      8 C           9.9747    0.3097    0.1751 C.3     1  LIG1       -0.0501
      9 C           9.6482   -0.0708   -1.2752 C.3     1  LIG1       -0.0528
     10 C           8.4113    0.5514   -1.9208 C.3     1  LIG1       -0.0530
     11 C           7.4582    1.3211   -1.0146 C.3     1  LIG1       -0.0528
     12 C           8.0742    1.8555    0.2667 C.3     1  LIG1       -0.0501
     13 C           5.8401   -1.4926    2.6980 C.2     1  LIG1        0.2338
     14 O           6.2410   -2.5182    2.1639 O.2     1  LIG1       -0.2738
     15 N           4.6737   -1.4891    3.4616 N.am    1  LIG1       -0.3067
     16 C           3.8183   -2.6997    3.7421 C.3     1  LIG1        0.0724
     17 H           3.2523   -2.3967    4.6436 H       1  LIG1        0.0542
     18 C           2.6731   -2.9172    2.6572 C.3     1  LIG1       -0.0192
     19 C           3.0175   -3.0582    1.1509 C.3     1  LIG1        0.0388
     20 H           3.5876   -2.1865    0.8241 H       1  LIG1        0.0395
     21 C           1.7667   -3.1800    0.2321 C.3     1  LIG1       -0.0262
     22 C           1.4246   -4.6640    0.2344 C.3     1  LIG1        0.0123
     23 N           2.6972   -5.2920    0.4243 N.am    1  LIG1       -0.3151
     24 C           3.6804   -4.3372    0.6639 C.2     1  LIG1        0.2162
     25 O           4.8319   -4.4829    0.3056 O.2     1  LIG1       -0.2755
     26 C           4.5476   -4.0130    4.1856 C.3     1  LIG1        0.2173
     27 O           5.2960   -4.6434    3.1394 O.3     1  LIG1       -0.3677
     28 S           5.4508   -3.8808    5.7852 S.O2    1  LIG1        0.1087
     29 O           4.4998   -3.6875    6.8884 O.2     1  LIG1       -0.1448
     30 O           6.4840   -4.9027    5.8572 O.2     1  LIG1       -0.1448
     31 O           6.2637   -2.4845    5.6276 O.3     1  LIG1       -0.2518
     32 O           7.1285    1.8943    5.4223 O.3     1  LIG1       -0.4456
     33 C           8.0987    2.8418    5.8884 C.3     1  LIG1        0.1191
     34 C           7.7322    4.2961    5.7557 C.ar    1  LIG1       -0.0103
     35 C           8.5559    5.1644    5.0221 C.ar    1  LIG1       -0.0554
     36 C           8.2172    6.5101    4.8750 C.ar    1  LIG1       -0.0614
     37 C           7.0525    7.0015    5.4593 C.ar    1  LIG1       -0.0617
     38 C           6.2424    6.1550    6.2151 C.ar    1  LIG1       -0.0614
     39 C           6.5863    4.8106    6.3736 C.ar    1  LIG1       -0.0554
     40 H           7.0723   -0.2066    4.6015 H       1  LIG1        0.1528
     41 H           7.5805   -0.9917    0.7180 H       1  LIG1        0.0290
     42 H           8.5777   -1.0854    2.1484 H       1  LIG1        0.0290
     43 H           9.2392    1.2376    1.9537 H       1  LIG1        0.0301
     44 H          10.5305   -0.5096    0.6457 H       1  LIG1        0.0268
     45 H          10.6882    1.1465    0.1231 H       1  LIG1        0.0268
     46 H           9.5711   -1.1620   -1.3511 H       1  LIG1        0.0265
     47 H          10.5171    0.1849   -1.9022 H       1  LIG1        0.0265
     48 H           7.8405   -0.2471   -2.4154 H       1  LIG1        0.0265
     49 H           8.7296    1.2050   -2.7450 H       1  LIG1        0.0265
     50 H           6.6181    0.6697   -0.7531 H       1  LIG1        0.0265
     51 H           7.0285    2.1562   -1.5818 H       1  LIG1        0.0265
     52 H           7.3003    2.3411    0.8621 H       1  LIG1        0.0268
     53 H           8.7978    2.6447    0.0121 H       1  LIG1        0.0268
     54 H           4.4963   -0.6622    4.0239 H       1  LIG1        0.1492
     55 H           2.0308   -2.0226    2.7264 H       1  LIG1        0.0292
     56 H           2.0201   -3.7406    2.9855 H       1  LIG1        0.0292
     57 H           2.0762   -2.9123   -0.7915 H       1  LIG1        0.0288
     58 H           0.9200   -2.5390    0.4872 H       1  LIG1        0.0288
     59 H           0.9938   -4.9980   -0.7170 H       1  LIG1        0.0462
     60 H           0.7611   -4.9526    1.0535 H       1  LIG1        0.0462
     61 H           3.0030   -6.0804   -0.1365 H       1  LIG1        0.1487
     62 H           3.7898   -4.7708    4.4224 H       1  LIG1        0.0885
     63 H           6.1998   -4.8019    3.4687 H       1  LIG1        0.2119
     64 H           7.1353   -2.6241    6.0591 H       1  LIG1        0.2446
     65 H           9.0552    2.6173    5.4021 H       1  LIG1        0.0749
     66 H           8.2429    2.6214    6.9529 H       1  LIG1        0.0749
     67 H           9.4588    4.7936    4.5409 H       1  LIG1        0.0621
     68 H           8.8538    7.1695    4.2907 H       1  LIG1        0.0618
     69 H           6.7734    8.0425    5.3205 H       1  LIG1        0.0618
     70 H           5.3346    6.5402    6.6716 H       1  LIG1        0.0618
     71 H           5.9494    4.1633    6.9710 H       1  LIG1        0.0621
@<TRIPOS>BOND
     1     1     2    2
     2     2     3   am
     3     3     4    1
     4     4     5    1
     5     4     6    1
     6     6     7    1
     7     7     8    1
     8     8     9    1
     9     9    10    1
    10    10    11    1
    11    11    12    1
    12     7    12    1
    13     4    13    1
    14    13    14    2
    15    13    15   am
    16    15    16    1
    17    16    17    1
    18    16    18    1
    19    19    21    1
    20    21    22    1
    21    22    23    1
    22    23    24   am
    23    19    24    1
    24    24    25    2
    25    16    26    1
    26    26    27    1
    27    26    28    1
    28    28    29    2
    29    28    30    2
    30    28    31    1
    31     2    32    1
    32    32    33    1
    33    33    34    1
    34    34    35   ar
    35    35    36   ar
    36    36    37   ar
    37    37    38   ar
    38    38    39   ar
    39    34    39   ar
    40    19    20    1
    41    19    18    1
    42     3    40    1
    43     6    41    1
    44     6    42    1
    45     7    43    1
    46     8    44    1
    47     8    45    1
    48     9    46    1
    49     9    47    1
    50    10    48    1
    51    10    49    1
    52    11    50    1
    53    11    51    1
    54    12    52    1
    55    12    53    1
    56    15    54    1
    57    18    55    1
    58    18    56    1
    59    21    57    1
    60    21    58    1
    61    22    59    1
    62    22    60    1
    63    23    61    1
    64    26    62    1
    65    27    63    1
    66    31    64    1
    67    33    65    1
    68    33    66    1
    69    35    67    1
    70    36    68    1
    71    37    69    1
    72    38    70    1
    73    39    71    1
@<TRIPOS>MOLECULE
*****
 76 77 0 0 0
SMALL
GASTEIGER

@<TRIPOS>ATOM
      1 C           7.5197   -2.5945   -2.8854 C.3     1  LIG1        0.0000
      2 C           7.9974   -2.4299   -1.4914 C.2     1  LIG1        0.0000
      3 O           7.2773   -2.7073   -0.5506 O.2     1  LIG1        0.0000
      4 O           9.2201   -1.8551   -1.5827 O.3     1  LIG1        0.0000
      5 C           9.5395   -0.7365   -0.7354 C.3     1  LIG1        0.0000
      6 C           8.8788    0.6018   -1.2485 C.3     1  LIG1        0.0000
      7 H           9.4909    0.7151   -2.1484 H       1  LIG1        0.0000
      8 C           9.0273    1.8466   -0.2997 C.3     1  LIG1        0.0000
      9 C           8.0720    2.1501    0.8653 C.3     1  LIG1        0.0000
     10 H           7.0782    2.0972    0.4098 H       1  LIG1        0.0000
     11 C           8.2528    3.6187    1.4180 C.3     1  LIG1        0.0000
     12 C           8.7025    3.4636    2.8631 C.3     1  LIG1        0.0000
     13 N           8.1303    2.2654    3.2657 N.am    1  LIG1        0.0000
     14 C           8.0648    1.4375    2.2269 C.2     1  LIG1        0.0000
     15 O           8.0638    0.3366    2.7377 O.2     1  LIG1        0.0000
     16 N           7.5589    0.5874   -1.9172 N.am    1  LIG1        0.0000
     17 C           6.9716    1.5617   -2.7018 C.2     1  LIG1        0.0000
     18 O           5.8098    1.3681   -3.0760 O.2     1  LIG1        0.0000
     19 C           7.7519    2.9213   -2.9701 C.3     1  LIG1        0.0000
     20 H           7.7032    3.4603   -2.0357 H       1  LIG1        0.0000
     21 C           7.0060    3.9018   -3.9109 C.3     1  LIG1        0.0000
     22 C           7.4720    5.4029   -4.0192 C.3     1  LIG1        0.0000
     23 C           7.5334    6.1917   -2.7007 C.3     1  LIG1        0.0000
     24 C           8.8348    6.0736   -1.9023 C.3     1  LIG1        0.0000
     25 C          10.1398    5.9775   -2.6995 C.3     1  LIG1        0.0000
     26 C          10.0210    5.4159   -4.1071 C.3     1  LIG1        0.0000
     27 C           8.7386    5.7723   -4.8078 C.3     1  LIG1        0.0000
     28 N           9.1406    2.6202   -3.3739 N.am    1  LIG1        0.0000
     29 C          10.3452    2.8637   -2.6565 C.2     1  LIG1        0.0000
     30 O          10.5586    3.3719   -1.6404 O.2     1  LIG1        0.0000
     31 O          11.3700    2.5326   -3.4711 O.3     1  LIG1        0.0000
     32 C          12.1489    1.4441   -2.9669 C.3     1  LIG1        0.0000
     33 C          11.6978    0.2858   -3.8123 C.ar    1  LIG1        0.0000
     34 C          11.7873   -1.0150   -3.3300 C.ar    1  LIG1        0.0000
     35 C          11.3853   -2.0759   -4.1342 C.ar    1  LIG1        0.0000
     36 C          10.8789   -1.8406   -5.4137 C.ar    1  LIG1        0.0000
     37 C          10.7561   -0.5437   -5.8950 C.ar    1  LIG1        0.0000
     38 C          11.1796    0.5103   -5.1048 C.ar    1  LIG1        0.0000
     39 S           9.4358   -0.9314    0.9688 S.3     1  LIG1        0.0000
     40 O          10.1873    0.2632    1.3784 O.2     1  LIG1        0.0000
     41 O           7.9741   -0.9640    0.9995 O.2     1  LIG1        0.0000
     42 O          10.1197   -2.1603    1.3450 O.co2   1  LIG1       -1.0000
     43 NA          1.0418   -2.9254   -0.7366 Na      2  LIG2        0.0000
     44 H           8.2940   -3.1133   -3.4438 H       1  LIG1        0.0000
     45 H           7.3168   -1.6152   -3.3239 H       1  LIG1        0.0000
     46 H           6.5975   -3.1739   -2.8657 H       1  LIG1        0.0000
     47 H          10.6177   -0.5806   -0.8370 H       1  LIG1        0.0000
     48 H           8.7995    2.7151   -0.8919 H       1  LIG1        0.0000
     49 H          10.0840    1.9741   -0.0474 H       1  LIG1        0.0000
     50 H           7.2595    4.0825    1.4035 H       1  LIG1        0.0000
     51 H           8.9327    4.3007    0.8918 H       1  LIG1        0.0000
     52 H           8.2720    4.1614    3.5744 H       1  LIG1        0.0000
     53 H           9.7859    3.3581    2.9689 H       1  LIG1        0.0000
     54 H           8.5492    1.6108    3.9255 H       1  LIG1        0.0000
     55 H           7.0041   -0.2454   -1.7885 H       1  LIG1        0.0000
     56 H           5.9773    3.9629   -3.5090 H       1  LIG1        0.0000
     57 H           6.8751    3.4676   -4.9107 H       1  LIG1        0.0000
     58 H           6.6542    5.8612   -4.5966 H       1  LIG1        0.0000
     59 H           6.6726    5.9574   -2.0644 H       1  LIG1        0.0000
     60 H           7.4220    7.2539   -2.9623 H       1  LIG1        0.0000
     61 H           8.7478    5.2177   -1.2279 H       1  LIG1        0.0000
     62 H           8.9209    6.9447   -1.2400 H       1  LIG1        0.0000
     63 H          10.8675    5.4072   -2.1160 H       1  LIG1        0.0000
     64 H          10.6215    6.9558   -2.7628 H       1  LIG1        0.0000
     65 H          10.0405    4.3579   -4.1179 H       1  LIG1        0.0000
     66 H          10.9144    5.6397   -4.6940 H       1  LIG1        0.0000
     67 H           8.7134    5.3499   -5.8155 H       1  LIG1        0.0000
     68 H           8.7666    6.8622   -4.9205 H       1  LIG1        0.0000
     69 H           9.2646    2.1327   -4.2430 H       1  LIG1        0.0000
     70 H          12.0242    1.2567   -1.8897 H       1  LIG1        0.0000
     71 H          13.2011    1.6679   -3.1598 H       1  LIG1        0.0000
     72 H          12.1574   -1.2087   -2.3249 H       1  LIG1        0.0000
     73 H          11.4766   -3.0899   -3.7569 H       1  LIG1        0.0000
     74 H          10.5934   -2.6752   -6.0440 H       1  LIG1        0.0000
     75 H          10.3595   -0.3472   -6.8858 H       1  LIG1        0.0000
     76 H          11.0986    1.5226   -5.5020 H       1  LIG1        0.0000
@<TRIPOS>BOND
     1     1     2    1
     2     2     3    2
     3     2     4    1
     4     4     5    1
     5     6     8    1
     6     9    11    1
     7    11    12    1
     8    12    13    1
     9    13    14   am
    10     9    14    1
    11    14    15    2
    12     6    16    1
    13    16    17   am
    14    17    18    2
    15    19    21    1
    16    21    22    1
    17    22    23    1
    18    23    24    1
    19    24    25    1
    20    25    26    1
    21    26    27    1
    22    22    27    1
    23    19    28    1
    24    28    29   am
    25    29    30    2
    26    29    31    1
    27    31    32    1
    28    32    33    1
    29    33    34   ar
    30    34    35   ar
    31    35    36   ar
    32    36    37   ar
    33    37    38   ar
    34    33    38   ar
    35     5    39    1
    36    39    40    2
    37    39    41    2
    38    39    42    1
    39     6     7    1
    40     6     5    1
    41     9    10    1
    42     9     8    1
    43    19    20    1
    44    19    17    1
    45     1    44    1
    46     1    45    1
    47     1    46    1
    48     5    47    1
    49     8    48    1
    50     8    49    1
    51    11    50    1
    52    11    51    1
    53    12    52    1
    54    12    53    1
    55    13    54    1
    56    16    55    1
    57    21    56    1
    58    21    57    1
    59    22    58    1
    60    23    59    1
    61    23    60    1
    62    24    61    1
    63    24    62    1
    64    25    63    1
    65    25    64    1
    66    26    65    1
    67    26    66    1
    68    27    67    1
    69    27    68    1
    70    28    69    1
    71    32    70    1
    72    32    71    1
    73    34    72    1
    74    35    73    1
    75    36    74    1
    76    37    75    1
    77    38    76    1
@<TRIPOS>MOLECULE
*****
 71 72 0 0 0
SMALL
GASTEIGER

@<TRIPOS>ATOM
      1 O           2.5370    0.3622   -0.1580 O.2     1  LIG1        0.0000
      2 C           2.5356   -0.4999    0.7025 C.2     1  LIG1        0.0000
      3 N           2.3741   -0.3193    2.0661 N.am    1  LIG1        0.0000
      4 C           2.6333   -1.5177    2.8236 C.3     1  LIG1        0.0000
      5 C           2.4267   -2.6051    1.7931 C.3     1  LIG1        0.0000
      6 C           2.9748   -1.9028    0.5243 C.3     1  LIG1        0.0000
      7 H           4.0705   -1.8788    0.6359 H       1  LIG1        0.0000
      8 C           2.6534   -2.6458   -0.7430 C.3     1  LIG1        0.0000
      9 C           3.2532   -2.4524   -2.1591 C.3     1  LIG1        0.0000
     10 H           2.5241   -1.8306   -2.6933 H       1  LIG1        0.0000
     11 N           3.2954   -3.7499   -2.9150 N.am    1  LIG1        0.0000
     12 C           3.7478   -5.0210   -2.6174 C.2     1  LIG1        0.0000
     13 O           3.8494   -5.8278   -3.5454 O.2     1  LIG1        0.0000
     14 C           4.0771   -5.4420   -1.1704 C.3     1  LIG1        0.0000
     15 H           3.4915   -4.8601   -0.5292 H       1  LIG1        0.0000
     16 C           5.5441   -5.2282   -0.7040 C.3     1  LIG1        0.0000
     17 C           5.8101   -4.9191    0.8224 C.3     1  LIG1        0.0000
     18 C           5.3421   -6.0281    1.7681 C.3     1  LIG1        0.0000
     19 C           6.0131   -7.3563    1.4072 C.3     1  LIG1        0.0000
     20 C           7.5418   -7.2439    1.4304 C.3     1  LIG1        0.0000
     21 C           8.1033   -5.9874    0.7556 C.3     1  LIG1        0.0000
     22 C           7.3145   -4.7395    1.1425 C.3     1  LIG1        0.0000
     23 N           3.5227   -6.7096   -0.6522 N.3     1  LIG1        0.0000
     24 S           1.8353   -6.9667   -0.7764 S.O2    1  LIG1        0.0000
     25 O           1.1485   -5.7849   -0.2307 O.2     1  LIG1        0.0000
     26 O           1.5980   -7.4557   -2.0836 O.2     1  LIG1        0.0000
     27 C           1.7531   -8.2788    0.4622 C.3     1  LIG1        0.0000
     28 C           0.4006   -8.9136    0.4669 C.ar    1  LIG1        0.0000
     29 C          -0.7156   -8.1954    0.9111 C.ar    1  LIG1        0.0000
     30 C          -1.9908   -8.7274    0.7587 C.ar    1  LIG1        0.0000
     31 C          -2.1500  -10.0141    0.2490 C.ar    1  LIG1        0.0000
     32 C          -1.0337  -10.7811   -0.0802 C.ar    1  LIG1        0.0000
     33 C           0.2403  -10.2293    0.0162 C.ar    1  LIG1        0.0000
     34 C           4.6030   -1.7260   -2.2129 C.3     1  LIG1        0.0000
     35 O           5.7390   -2.4825   -1.7482 O.3     1  LIG1        0.0000
     36 S           4.9469   -0.9172   -3.8039 S.3     1  LIG1        0.0000
     37 O           6.3214   -0.4405   -3.5334 O.2     1  LIG1        0.0000
     38 O           4.8159   -1.9095   -4.8185 O.2     1  LIG1        0.0000
     39 O           4.0201    0.2238   -3.7888 O.co2   1  LIG1       -1.0000
     40 NA          6.1605    0.9035   -1.9516 Na      2  LIG2        0.0000
     41 H           2.3224    0.6136    2.4512 H       1  LIG1        0.0000
     42 H           1.9651   -1.5982    3.6834 H       1  LIG1        0.0000
     43 H           3.6749   -1.4914    3.1641 H       1  LIG1        0.0000
     44 H           1.3599   -2.8467    1.6909 H       1  LIG1        0.0000
     45 H           2.9525   -3.5334    2.0522 H       1  LIG1        0.0000
     46 H           1.6512   -3.0936   -0.7906 H       1  LIG1        0.0000
     47 H           3.2785   -3.3972   -0.3742 H       1  LIG1        0.0000
     48 H           3.1990   -3.6356   -3.9293 H       1  LIG1        0.0000
     49 H           6.0155   -4.4177   -1.2413 H       1  LIG1        0.0000
     50 H           6.1184   -6.0900   -1.0419 H       1  LIG1        0.0000
     51 H           5.3136   -3.9788    1.0994 H       1  LIG1        0.0000
     52 H           4.2540   -6.0806    1.8050 H       1  LIG1        0.0000
     53 H           5.5962   -5.7797    2.8049 H       1  LIG1        0.0000
     54 H           5.7007   -7.7153    0.4192 H       1  LIG1        0.0000
     55 H           5.6890   -8.1214    2.1183 H       1  LIG1        0.0000
     56 H           7.9817   -8.1332    0.9651 H       1  LIG1        0.0000
     57 H           7.8618   -7.2423    2.4782 H       1  LIG1        0.0000
     58 H           8.0928   -6.1057   -0.3330 H       1  LIG1        0.0000
     59 H           9.1563   -5.8640    1.0311 H       1  LIG1        0.0000
     60 H           7.7301   -3.8473    0.6625 H       1  LIG1        0.0000
     61 H           7.4361   -4.5782    2.2259 H       1  LIG1        0.0000
     62 H           3.7106   -6.7652    0.3341 H       1  LIG1        0.0000
     63 H           1.9718   -7.8554    1.4476 H       1  LIG1        0.0000
     64 H           2.5390   -8.9932    0.1947 H       1  LIG1        0.0000
     65 H          -0.6034   -7.2003    1.3380 H       1  LIG1        0.0000
     66 H          -2.8581   -8.1258    1.0147 H       1  LIG1        0.0000
     67 H          -3.1473  -10.4178    0.1032 H       1  LIG1        0.0000
     68 H          -1.1571  -11.7978   -0.4429 H       1  LIG1        0.0000
     69 H           1.1010  -10.8240   -0.2851 H       1  LIG1        0.0000
     70 H           4.5753   -0.9076   -1.4928 H       1  LIG1        0.0000
     71 H           6.3604   -2.4903   -2.5157 H       1  LIG1        0.0000
@<TRIPOS>BOND
     1     1     2    2
     2     2     3   am
     3     3     4    1
     4     4     5    1
     5     5     6    1
     6     2     6    1
     7     9    11    1
     8    11    12   am
     9    12    13    2
    10    14    16    1
    11    16    17    1
    12    17    18    1
    13    18    19    1
    14    19    20    1
    15    20    21    1
    16    21    22    1
    17    17    22    1
    18    14    23    1
    19    23    24    1
    20    24    25    2
    21    24    26    2
    22    24    27    1
    23    27    28    1
    24    28    29   ar
    25    29    30   ar
    26    30    31   ar
    27    31    32   ar
    28    32    33   ar
    29    28    33   ar
    30     9    34    1
    31    34    35    1
    32    34    36    1
    33    36    37    2
    34    36    38    2
    35    36    39    1
    36     6     8    1
    37     6     7    1
    38     9    10    1
    39     9     8    1
    40    14    15    1
    41    14    12    1
    42     3    41    1
    43     4    42    1
    44     4    43    1
    45     5    44    1
    46     5    45    1
    47     8    46    1
    48     8    47    1
    49    11    48    1
    50    16    49    1
    51    16    50    1
    52    17    51    1
    53    18    52    1
    54    18    53    1
    55    19    54    1
    56    19    55    1
    57    20    56    1
    58    20    57    1
    59    21    58    1
    60    21    59    1
    61    22    60    1
    62    22    61    1
    63    23    62    1
    64    27    63    1
    65    27    64    1
    66    29    65    1
    67    30    66    1
    68    31    67    1
    69    32    68    1
    70    33    69    1
    71    34    70    1
    72    35    71    1
@<TRIPOS>MOLECULE
*****
 78 79 0 0 0
SMALL
GASTEIGER

@<TRIPOS>ATOM
      1 O           5.8498    7.1349   -1.0235 O.2     1  LIG1        0.0000
      2 C           6.7870    6.4557   -0.7727 C.2     1  LIG1        0.0000
      3 N           6.8949    5.1101   -1.0487 N.am    1  LIG1        0.0000
      4 C           6.0035    4.5407   -2.0442 C.3     1  LIG1        0.0000
      5 H           5.0461    5.0461   -1.9073 H       1  LIG1        0.0000
      6 C           6.5568    4.9008   -3.4591 C.3     1  LIG1        0.0000
      7 C           5.7207    4.3550   -4.6333 C.3     1  LIG1        0.0000
      8 C           4.2475    4.7650   -4.5362 C.3     1  LIG1        0.0000
      9 C           3.9094    6.2048   -4.9105 C.3     1  LIG1        0.0000
     10 C           4.5252    6.6284   -6.2319 C.3     1  LIG1        0.0000
     11 C           5.9945    6.2315   -6.3330 C.3     1  LIG1        0.0000
     12 C           6.2047    4.7440   -6.0430 C.3     1  LIG1        0.0000
     13 C           5.7895    3.0150   -1.7953 C.2     1  LIG1        0.0000
     14 O           6.7421    2.2565   -1.6443 O.2     1  LIG1        0.0000
     15 N           4.4629    2.5953   -1.8186 N.am    1  LIG1        0.0000
     16 C           3.9233    1.2585   -1.4598 C.3     1  LIG1        0.0000
     17 H           2.9413    1.2358   -1.9510 H       1  LIG1        0.0000
     18 C           4.7644    0.0831   -2.0276 C.3     1  LIG1        0.0000
     19 C           5.0647    0.0171   -3.5354 C.3     1  LIG1        0.0000
     20 H           5.8846    0.7112   -3.7515 H       1  LIG1        0.0000
     21 C           3.9553    0.2487   -4.5736 C.3     1  LIG1        0.0000
     22 C           4.4911   -0.4499   -5.8297 C.3     1  LIG1        0.0000
     23 N           5.3403   -1.4807   -5.3214 N.am    1  LIG1        0.0000
     24 C           5.5562   -1.3621   -3.9640 C.2     1  LIG1        0.0000
     25 O           6.0437   -2.2389   -3.2742 O.2     1  LIG1        0.0000
     26 C           3.6718    0.9753    0.0700 C.3     1  LIG1        0.0000
     27 O           4.8757    1.0310    0.8530 O.3     1  LIG1        0.0000
     28 S           2.2542    1.8690    0.7649 S.3     1  LIG1        0.0000
     29 O           2.6312    3.2700    0.6510 O.2     1  LIG1        0.0000
     30 O           1.1241    1.4059   -0.0638 O.2     1  LIG1        0.0000
     31 O           2.1721    1.3536    2.1286 O.co2   1  LIG1       -1.0000
     32 O           7.9594    6.8785   -0.2121 O.3     1  LIG1        0.0000
     33 C           7.7723    7.5633    1.0212 C.3     1  LIG1        0.0000
     34 C           6.8341    8.7709    1.0344 C.3     1  LIG1        0.0000
     35 O           6.8173    9.4208    2.3130 O.3     1  LIG1        0.0000
     36 C           6.1433    8.6664    3.3245 C.3     1  LIG1        0.0000
     37 C           6.9628    7.5256    3.8875 C.ar    1  LIG1        0.0000
     38 C           8.2636    7.6921    4.3859 C.ar    1  LIG1        0.0000
     39 C           8.9284    6.6087    4.9711 C.ar    1  LIG1        0.0000
     40 C           8.3225    5.3514    5.0169 C.ar    1  LIG1        0.0000
     41 C           7.0878    5.1518    4.4097 C.ar    1  LIG1        0.0000
     42 C           6.4070    6.2344    3.8643 C.ar    1  LIG1        0.0000
     43 NA          0.1275   -0.5155   -0.4122 Na      2  LIG2        0.0000
     44 H           7.6781    4.5918   -0.6798 H       1  LIG1        0.0000
     45 H           7.6015    4.5646   -3.5514 H       1  LIG1        0.0000
     46 H           6.6035    5.9960   -3.5308 H       1  LIG1        0.0000
     47 H           5.7852    3.2608   -4.5702 H       1  LIG1        0.0000
     48 H           3.8577    4.5904   -3.5384 H       1  LIG1        0.0000
     49 H           3.6974    4.1070   -5.2139 H       1  LIG1        0.0000
     50 H           4.2012    6.8982   -4.1117 H       1  LIG1        0.0000
     51 H           2.8193    6.2789   -5.0032 H       1  LIG1        0.0000
     52 H           4.4089    7.7120   -6.3566 H       1  LIG1        0.0000
     53 H           3.9597    6.1589   -7.0465 H       1  LIG1        0.0000
     54 H           6.5778    6.8266   -5.6238 H       1  LIG1        0.0000
     55 H           6.3590    6.4723   -7.3372 H       1  LIG1        0.0000
     56 H           7.2484    4.4555   -6.2105 H       1  LIG1        0.0000
     57 H           5.6133    4.1647   -6.7698 H       1  LIG1        0.0000
     58 H           3.7598    3.3249   -1.9048 H       1  LIG1        0.0000
     59 H           4.3112   -0.8630   -1.7007 H       1  LIG1        0.0000
     60 H           5.7353    0.0938   -1.5155 H       1  LIG1        0.0000
     61 H           3.7766    1.3089   -4.7755 H       1  LIG1        0.0000
     62 H           3.0043   -0.1999   -4.2611 H       1  LIG1        0.0000
     63 H           5.0828    0.2210   -6.4606 H       1  LIG1        0.0000
     64 H           3.7112   -0.9181   -6.4381 H       1  LIG1        0.0000
     65 H           5.5923   -2.3342   -5.8073 H       1  LIG1        0.0000
     66 H           3.3113   -0.0632    0.1583 H       1  LIG1        0.0000
     67 H           4.6494    1.6407    1.5857 H       1  LIG1        0.0000
     68 H           8.7567    7.8578    1.4085 H       1  LIG1        0.0000
     69 H           7.4064    6.7912    1.6861 H       1  LIG1        0.0000
     70 H           5.8091    8.4997    0.7686 H       1  LIG1        0.0000
     71 H           7.1706    9.4967    0.2853 H       1  LIG1        0.0000
     72 H           5.1794    8.3009    2.9441 H       1  LIG1        0.0000
     73 H           5.9060    9.3472    4.1487 H       1  LIG1        0.0000
     74 H           8.7685    8.6543    4.3128 H       1  LIG1        0.0000
     75 H           9.9163    6.7422    5.4053 H       1  LIG1        0.0000
     76 H           8.8098    4.5226    5.5233 H       1  LIG1        0.0000
     77 H           6.6411    4.1621    4.3692 H       1  LIG1        0.0000
     78 H           5.4504    6.0612    3.3740 H       1  LIG1        0.0000
@<TRIPOS>BOND
     1     1     2    2
     2     2     3   am
     3     3     4    1
     4     4     5    1
     5     4     6    1
     6     6     7    1
     7     7     8    1
     8     8     9    1
     9     9    10    1
    10    10    11    1
    11    11    12    1
    12     7    12    1
    13     4    13    1
    14    13    14    2
    15    13    15   am
    16    15    16    1
    17    16    17    1
    18    16    18    1
    19    19    21    1
    20    21    22    1
    21    22    23    1
    22    23    24   am
    23    19    24    1
    24    24    25    2
    25    16    26    1
    26    26    27    1
    27    26    28    1
    28    28    29    2
    29    28    30    2
    30    28    31    1
    31     2    32    1
    32    32    33    1
    33    33    34    1
    34    34    35    1
    35    35    36    1
    36    36    37    1
    37    37    38   ar
    38    38    39   ar
    39    39    40   ar
    40    40    41   ar
    41    41    42   ar
    42    37    42   ar
    43    19    20    1
    44    19    18    1
    45     3    44    1
    46     6    45    1
    47     6    46    1
    48     7    47    1
    49     8    48    1
    50     8    49    1
    51     9    50    1
    52     9    51    1
    53    10    52    1
    54    10    53    1
    55    11    54    1
    56    11    55    1
    57    12    56    1
    58    12    57    1
    59    15    58    1
    60    18    59    1
    61    18    60    1
    62    21    61    1
    63    21    62    1
    64    22    63    1
    65    22    64    1
    66    23    65    1
    67    26    66    1
    68    27    67    1
    69    33    68    1
    70    33    69    1
    71    34    70    1
    72    34    71    1
    73    36    72    1
    74    36    73    1
    75    38    74    1
    76    39    75    1
    77    40    76    1
    78    41    77    1
    79    42    78    1
@<TRIPOS>MOLECULE
*****
 71 73 0 0 0
SMALL
GASTEIGER

@<TRIPOS>ATOM
      1 O           0.3232   -1.9113    0.5747 O.2     1  LIG1       -0.2755
      2 C           0.1173   -2.3689    1.6564 C.2     1  LIG1        0.2162
      3 N           1.0557   -2.3721    2.6804 N.am    1  LIG1       -0.3151
      4 C           0.4953   -2.8540    3.8834 C.3     1  LIG1        0.0123
      5 C          -0.6343   -3.7518    3.3851 C.3     1  LIG1       -0.0262
      6 C          -1.1413   -3.0863    2.0735 C.3     1  LIG1        0.0388
      7 H          -1.3405   -3.8508    1.3373 H       1  LIG1        0.0395
      8 C          -2.4229   -2.2301    2.2787 C.3     1  LIG1       -0.0192
      9 C          -3.0215   -1.4416    1.0414 C.3     1  LIG1        0.0724
     10 H          -3.2040   -2.1555    0.2254 H       1  LIG1        0.0542
     11 N          -2.0582   -0.4179    0.5986 N.am    1  LIG1       -0.3069
     12 C          -1.7864   -0.1052   -0.7273 C.2     1  LIG1        0.2320
     13 O          -2.4294   -0.6305   -1.6413 O.2     1  LIG1       -0.2740
     14 C          -0.6232    0.9379   -0.9823 C.3     1  LIG1        0.1046
     15 H          -0.9028    1.4839   -1.8913 H       1  LIG1        0.0573
     16 C           0.7795    0.2888   -1.1651 C.3     1  LIG1       -0.0246
     17 C           0.8653   -0.8920   -2.1829 C.3     1  LIG1       -0.0391
     18 C           0.5943   -0.4485   -3.6263 C.3     1  LIG1       -0.0501
     19 C           1.7547    0.2862   -4.2984 C.3     1  LIG1       -0.0528
     20 C           3.1192   -0.3773   -4.1382 C.3     1  LIG1       -0.0530
     21 C           3.3890   -0.9342   -2.7465 C.3     1  LIG1       -0.0528
     22 C           2.1974   -1.6774   -2.1528 C.3     1  LIG1       -0.0501
     23 N          -0.6623    1.9676    0.1704 N.3     1  LIG1       -0.1823
     24 S           0.4019    3.3206    0.0448 S.O2    1  LIG1        0.0341
     25 O           1.7728    2.8147    0.0279 O.2     1  LIG1       -0.1579
     26 O          -0.1243    4.1339   -1.0096 O.2     1  LIG1       -0.1579
     27 C           0.1230    4.1189    1.6449 C.3     1  LIG1        0.1067
     28 C           0.9768    5.3609    1.7557 C.ar    1  LIG1       -0.0250
     29 C           0.4714    6.6198    1.3968 C.ar    1  LIG1       -0.0570
     30 C           1.3098    7.7376    1.3661 C.ar    1  LIG1       -0.0615
     31 C           2.6488    7.6187    1.7323 C.ar    1  LIG1       -0.0617
     32 C           3.1437    6.3898    2.1615 C.ar    1  LIG1       -0.0615
     33 C           2.3133    5.2674    2.1738 C.ar    1  LIG1       -0.0570
     34 C          -4.3832   -0.7980    1.4619 C.3     1  LIG1        0.2173
     35 O          -4.1658    0.0404    2.6310 O.3     1  LIG1       -0.3677
     36 S          -5.3147    0.0533    0.1249 S.O2    1  LIG1        0.1087
     37 O          -6.5759    0.4859    0.6956 O.2     1  LIG1       -0.1448
     38 O          -4.4905    0.9919   -0.6004 O.2     1  LIG1       -0.1448
     39 O          -5.6100   -1.2061   -0.8437 O.3     1  LIG1       -0.2518
     40 H           1.9345   -1.8808    2.5666 H       1  LIG1        0.1487
     41 H           0.1168   -1.9856    4.4330 H       1  LIG1        0.0462
     42 H           1.2488   -3.3738    4.4789 H       1  LIG1        0.0462
     43 H          -1.3975   -3.9222    4.1433 H       1  LIG1        0.0288
     44 H          -0.2023   -4.7281    3.1159 H       1  LIG1        0.0288
     45 H          -2.2748   -1.5354    3.1137 H       1  LIG1        0.0292
     46 H          -3.2006   -2.9377    2.6142 H       1  LIG1        0.0292
     47 H          -1.7421    0.2620    1.2807 H       1  LIG1        0.1492
     48 H           1.1645   -0.0107   -0.1857 H       1  LIG1        0.0288
     49 H           1.4840    1.0506   -1.5032 H       1  LIG1        0.0288
     50 H           0.0884   -1.6189   -1.9148 H       1  LIG1        0.0301
     51 H          -0.2996    0.1817   -3.6700 H       1  LIG1        0.0268
     52 H           0.3616   -1.3419   -4.2194 H       1  LIG1        0.0268
     53 H           1.8074    1.3127   -3.9196 H       1  LIG1        0.0265
     54 H           1.5368    0.3662   -5.3711 H       1  LIG1        0.0265
     55 H           3.9034    0.3495   -4.3891 H       1  LIG1        0.0265
     56 H           3.2160   -1.1853   -4.8744 H       1  LIG1        0.0265
     57 H           3.6935   -0.1262   -2.0735 H       1  LIG1        0.0265
     58 H           4.2443   -1.6215   -2.8100 H       1  LIG1        0.0265
     59 H           2.4444   -2.0005   -1.1351 H       1  LIG1        0.0268
     60 H           2.0592   -2.6015   -2.7338 H       1  LIG1        0.0268
     61 H          -1.6120    2.3646    0.1730 H       1  LIG1        0.1485
     62 H           0.3868    3.3981    2.4233 H       1  LIG1        0.0565
     63 H          -0.9409    4.3636    1.7150 H       1  LIG1        0.0565
     64 H          -0.5699    6.7396    1.1044 H       1  LIG1        0.0621
     65 H           0.9254    8.6967    1.0265 H       1  LIG1        0.0618
     66 H           3.3100    8.4793    1.6693 H       1  LIG1        0.0618
     67 H           4.1867    6.2958    2.4538 H       1  LIG1        0.0618
     68 H           2.7316    4.3089    2.4758 H       1  LIG1        0.0621
     69 H          -5.0752   -1.5865    1.7908 H       1  LIG1        0.0885
     70 H          -5.0489    0.3932    2.8610 H       1  LIG1        0.2119
     71 H          -4.9956   -1.1608   -1.6138 H       1  LIG1        0.2446
@<TRIPOS>BOND
     1     1     2    2
     2     2     3   am
     3     3     4    1
     4     4     5    1
     5     5     6    1
     6     2     6    1
     7     9    11    1
     8    11    12   am
     9    12    13    2
    10    14    16    1
    11    16    17    1
    12    17    18    1
    13    18    19    1
    14    19    20    1
    15    20    21    1
    16    21    22    1
    17    17    22    1
    18    14    23    1
    19    23    24    1
    20    24    25    2
    21    24    26    2
    22    24    27    1
    23    27    28    1
    24    28    29   ar
    25    29    30   ar
    26    30    31   ar
    27    31    32   ar
    28    32    33   ar
    29    28    33   ar
    30     9    34    1
    31    34    35    1
    32    34    36    1
    33    36    37    2
    34    36    38    2
    35    36    39    1
    36    14    15    1
    37    14    12    1
    38     6     8    1
    39     6     7    1
    40     9    10    1
    41     9     8    1
    42     3    40    1
    43     4    41    1
    44     4    42    1
    45     5    43    1
    46     5    44    1
    47     8    45    1
    48     8    46    1
    49    11    47    1
    50    16    48    1
    51    16    49    1
    52    17    50    1
    53    18    51    1
    54    18    52    1
    55    19    53    1
    56    19    54    1
    57    20    55    1
    58    20    56    1
    59    21    57    1
    60    21    58    1
    61    22    59    1
    62    22    60    1
    63    23    61    1
    64    27    62    1
    65    27    63    1
    66    29    64    1
    67    30    65    1
    68    31    66    1
    69    32    67    1
    70    33    68    1
    71    34    69    1
    72    35    70    1
    73    39    71    1
@<TRIPOS>MOLECULE
*****
 78 80 0 0 0
SMALL
GASTEIGER

@<TRIPOS>ATOM
      1 O           6.0795   10.0398   -5.9341 O.2     1  LIG1       -0.2265
      2 C           7.1010    9.4492   -5.6508 C.2     1  LIG1        0.4009
      3 N           7.0502    8.2500   -4.9821 N.am    1  LIG1       -0.2698
      4 C           7.9545    7.1806   -4.4890 C.3     1  LIG1        0.1027
      5 H           7.5259    6.2960   -4.9958 H       1  LIG1        0.0596
      6 C           9.5153    7.0569   -4.9242 C.3     1  LIG1       -0.0230
      7 C          10.1230    7.1578   -6.4293 C.3     1  LIG1       -0.0389
      8 C          11.6897    7.0841   -6.4406 C.3     1  LIG1       -0.0501
      9 C          12.2753    5.6623   -6.4568 C.3     1  LIG1       -0.0528
     10 C          11.8399    4.8808   -7.6896 C.3     1  LIG1       -0.0530
     11 C          10.3208    4.8803   -7.8388 C.3     1  LIG1       -0.0528
     12 C           9.6807    6.2728   -7.6386 C.3     1  LIG1       -0.0501
     13 C           7.5088    6.8504   -2.8966 C.2     1  LIG1        0.2338
     14 O           7.2843    5.6608   -2.6052 O.2     1  LIG1       -0.2738
     15 N           7.3425    7.6952   -1.8055 N.am    1  LIG1       -0.3067
     16 C           7.4721    9.1510   -1.5210 C.3     1  LIG1        0.0724
     17 H           7.1975    9.4841   -2.4985 H       1  LIG1        0.0542
     18 C           6.5701    9.7035   -0.3312 C.3     1  LIG1       -0.0192
     19 C           5.0276    9.7061   -0.2633 C.3     1  LIG1        0.0388
     20 H           5.0289   10.4710   -0.9665 H       1  LIG1        0.0395
     21 C           4.0827   10.5028    0.6674 C.3     1  LIG1       -0.0262
     22 C           2.6424   10.2506    0.0732 C.3     1  LIG1        0.0123
     23 N           2.7677    8.9395   -0.4793 N.am    1  LIG1       -0.3151
     24 C           4.1016    8.6133   -0.7930 C.2     1  LIG1        0.2162
     25 O           4.4234    7.6841   -1.4651 O.2     1  LIG1       -0.2755
     26 C           8.9558    9.5942   -1.2251 C.3     1  LIG1        0.2173
     27 O           9.8007    9.2837   -2.3476 O.3     1  LIG1       -0.3677
     28 S           9.2761   11.3576   -0.5183 S.O2    1  LIG1        0.1087
     29 O          10.7774   11.5424   -0.4492 O.2     1  LIG1       -0.1448
     30 O           8.4859   12.4246   -0.8917 O.2     1  LIG1       -0.1448
     31 O           8.8094   11.0494    0.9976 O.3     1  LIG1       -0.2518
     32 O           8.3491    9.8115   -6.0702 O.3     1  LIG1       -0.4481
     33 C           9.0578   10.8941   -5.4094 C.3     1  LIG1        0.1173
     34 C           8.3977   12.2912   -5.3266 C.3     1  LIG1        0.0823
     35 O           7.1910   12.2693   -4.6215 O.3     1  LIG1       -0.3718
     36 C           7.4577   11.7915   -3.3467 C.3     1  LIG1        0.0728
     37 C           6.1320   11.8301   -2.7453 C.ar    1  LIG1       -0.0219
     38 C           5.1752   10.8519   -3.0625 C.ar    1  LIG1       -0.0564
     39 C           3.9015   11.0787   -2.5953 C.ar    1  LIG1       -0.0614
     40 C           3.6998   12.1925   -1.7032 C.ar    1  LIG1       -0.0617
     41 C           4.6946   13.0515   -1.2860 C.ar    1  LIG1       -0.0614
     42 C           5.8889   12.9218   -1.8968 C.ar    1  LIG1       -0.0564
     43 H           6.0619    8.0391   -4.8223 H       1  LIG1        0.1528
     44 H           9.9084    6.1092   -4.5288 H       1  LIG1        0.0290
     45 H          10.0436    7.8143   -4.3349 H       1  LIG1        0.0290
     46 H           9.8829    8.1817   -6.7381 H       1  LIG1        0.0301
     47 H          12.1183    7.6541   -5.6114 H       1  LIG1        0.0268
     48 H          12.0447    7.5792   -7.3597 H       1  LIG1        0.0268
     49 H          11.9901    5.1150   -5.5528 H       1  LIG1        0.0265
     50 H          13.3720    5.7189   -6.4590 H       1  LIG1        0.0265
     51 H          12.2218    3.8500   -7.6474 H       1  LIG1        0.0265
     52 H          12.2995    5.3236   -8.5847 H       1  LIG1        0.0265
     53 H           9.8738    4.1447   -7.1634 H       1  LIG1        0.0265
     54 H          10.0975    4.5222   -8.8573 H       1  LIG1        0.0265
     55 H           8.5951    6.2186   -7.7348 H       1  LIG1        0.0268
     56 H          10.0177    6.8272   -8.5348 H       1  LIG1        0.0268
     57 H           6.7838    7.2129   -1.0998 H       1  LIG1        0.1492
     58 H           6.9692    9.4330    0.6393 H       1  LIG1        0.0292
     59 H           6.7959   10.7764   -0.4220 H       1  LIG1        0.0292
     60 H           4.3845   11.5573    0.7570 H       1  LIG1        0.0288
     61 H           4.1521   10.0995    1.6702 H       1  LIG1        0.0288
     62 H           2.1823   10.7618   -0.7905 H       1  LIG1        0.0462
     63 H           1.8443   10.4203    0.7958 H       1  LIG1        0.0462
     64 H           2.0456    8.5605   -1.0876 H       1  LIG1        0.1487
     65 H           9.2751    8.9798   -0.3892 H       1  LIG1        0.0885
     66 H           9.8795    8.3189   -2.3471 H       1  LIG1        0.2119
     67 H           7.9414   11.5183    1.0501 H       1  LIG1        0.2446
     68 H           9.9995   11.0181   -5.9403 H       1  LIG1        0.0721
     69 H           9.3678   10.4950   -4.4388 H       1  LIG1        0.0721
     70 H           8.1059   12.7168   -6.2786 H       1  LIG1        0.0594
     71 H           9.0612   13.0061   -4.8115 H       1  LIG1        0.0594
     72 H           8.2118   12.4263   -2.9026 H       1  LIG1        0.0610
     73 H           7.8694   10.7996   -3.3755 H       1  LIG1        0.0610
     74 H           5.4443    9.8427   -3.4145 H       1  LIG1        0.0621
     75 H           3.2662   10.1819   -2.6245 H       1  LIG1        0.0618
     76 H           2.8962   12.3032   -0.9854 H       1  LIG1        0.0618
     77 H           4.5703   13.6762   -0.4028 H       1  LIG1        0.0618
     78 H           6.6708   13.6205   -1.6330 H       1  LIG1        0.0621
@<TRIPOS>BOND
     1     1     2    2
     2     2     3   am
     3     3     4    1
     4     4     5    1
     5     4     6    1
     6     6     7    1
     7     7     8    1
     8     8     9    1
     9     9    10    1
    10    10    11    1
    11    11    12    1
    12     7    12    1
    13     4    13    1
    14    13    14    2
    15    13    15   am
    16    15    16    1
    17    16    17    1
    18    16    18    1
    19    19    21    1
    20    21    22    1
    21    22    23    1
    22    23    24   am
    23    19    24    1
    24    24    25    2
    25    16    26    1
    26    26    27    1
    27    26    28    1
    28    28    29    2
    29    28    30    2
    30    28    31    1
    31     2    32    1
    32    32    33    1
    33    33    34    1
    34    34    35    1
    35    35    36    1
    36    36    37    1
    37    37    38   ar
    38    38    39   ar
    39    39    40   ar
    40    40    41   ar
    41    41    42   ar
    42    37    42   ar
    43    19    20    1
    44    19    18    1
    45     3    43    1
    46     6    44    1
    47     6    45    1
    48     7    46    1
    49     8    47    1
    50     8    48    1
    51     9    49    1
    52     9    50    1
    53    10    51    1
    54    10    52    1
    55    11    53    1
    56    11    54    1
    57    12    55    1
    58    12    56    1
    59    15    57    1
    60    18    58    1
    61    18    59    1
    62    21    60    1
    63    21    61    1
    64    22    62    1
    65    22    63    1
    66    23    64    1
    67    26    65    1
    68    27    66    1
    69    31    67    1
    70    33    68    1
    71    33    69    1
    72    34    70    1
    73    34    71    1
    74    36    72    1
    75    36    73    1
    76    38    74    1
    77    39    75    1
    78    40    76    1
    79    41    77    1
    80    42    78    1
@<TRIPOS>MOLECULE
*****
 76 78 0 0 0
SMALL
GASTEIGER

@<TRIPOS>ATOM
      1 C           9.5138   -4.2474   -4.1639 C.3     1  LIG1        0.0333
      2 C          10.9172   -4.1321   -4.6989 C.2     1  LIG1        0.3058
      3 O          11.9337   -4.1267   -4.0284 O.2     1  LIG1       -0.2511
      4 O          10.8649   -3.8402   -6.0083 O.3     1  LIG1       -0.4346
      5 C          11.9286   -3.0029   -6.4933 C.3     1  LIG1        0.2619
      6 C          11.7925   -1.5012   -6.0242 C.3     1  LIG1        0.0836
      7 H          12.5765   -0.9468   -6.5588 H       1  LIG1        0.0553
      8 C          12.0275   -1.1188   -4.4765 C.3     1  LIG1       -0.0181
      9 C          11.0018   -1.4115   -3.3341 C.3     1  LIG1        0.0388
     10 H          10.9132   -2.4603   -3.1261 H       1  LIG1        0.0395
     11 C           9.6084   -0.8003   -3.5147 C.3     1  LIG1       -0.0262
     12 C           9.7486    0.5268   -2.8028 C.3     1  LIG1        0.0123
     13 N          10.4917    0.1584   -1.6457 N.am    1  LIG1       -0.3151
     14 C          11.3370   -0.8977   -1.9244 C.2     1  LIG1        0.2162
     15 O          12.1307   -1.3735   -1.1316 O.2     1  LIG1       -0.2755
     16 N          10.5038   -0.8765   -6.5299 N.am    1  LIG1       -0.3056
     17 C           9.9326   -1.1040   -7.7889 C.2     1  LIG1        0.2339
     18 O          10.4450   -1.8286   -8.6443 O.2     1  LIG1       -0.2738
     19 C           8.5814   -0.3778   -8.0599 C.3     1  LIG1        0.1027
     20 H           8.1855   -0.0931   -7.0842 H       1  LIG1        0.0596
     21 C           7.3931   -1.2423   -8.7093 C.3     1  LIG1       -0.0230
     22 C           7.0320   -2.6229   -8.0452 C.3     1  LIG1       -0.0389
     23 C           5.8655   -3.4621   -8.6480 C.3     1  LIG1       -0.0501
     24 C           6.1811   -4.2693   -9.9282 C.3     1  LIG1       -0.0528
     25 C           7.5941   -4.8589  -10.0346 C.3     1  LIG1       -0.0530
     26 C           8.6386   -3.9131   -9.4737 C.3     1  LIG1       -0.0528
     27 C           8.2219   -3.5690   -8.0403 C.3     1  LIG1       -0.0501
     28 N           8.8986    0.9078   -8.7500 N.am    1  LIG1       -0.2698
     29 C           9.7101    1.0795   -9.8560 C.2     1  LIG1        0.4012
     30 O          10.6323    0.3562  -10.2553 O.2     1  LIG1       -0.2265
     31 O           9.3000    2.2210  -10.5021 O.3     1  LIG1       -0.4456
     32 C           9.1271    2.1429  -11.9544 C.3     1  LIG1        0.1191
     33 C           7.6729    1.7782  -12.1825 C.ar    1  LIG1       -0.0103
     34 C           6.7419    2.6004  -12.8243 C.ar    1  LIG1       -0.0554
     35 C           5.3748    2.2862  -12.7661 C.ar    1  LIG1       -0.0614
     36 C           4.9329    1.1521  -12.0829 C.ar    1  LIG1       -0.0617
     37 C           5.8567    0.2982  -11.5062 C.ar    1  LIG1       -0.0614
     38 C           7.2106    0.5959  -11.5998 C.ar    1  LIG1       -0.0554
     39 S          13.5986   -3.6399   -6.7804 S.O2    1  LIG1        0.1201
     40 O          14.4283   -2.6564   -7.3596 O.2     1  LIG1       -0.1436
     41 O          14.1220   -4.4559   -5.6562 O.2     1  LIG1       -0.1436
     42 O          13.2514   -4.6905   -7.9703 O.3     1  LIG1       -0.2509
     43 H           9.2309   -5.2913   -4.0937 H       1  LIG1        0.0342
     44 H           8.8262   -3.6906   -4.8128 H       1  LIG1        0.0342
     45 H           9.4239   -3.7806   -3.1778 H       1  LIG1        0.0342
     46 H          11.7045   -2.9834   -7.5593 H       1  LIG1        0.1030
     47 H          12.1776   -0.0297   -4.4643 H       1  LIG1        0.0292
     48 H          12.9983   -1.5349   -4.1744 H       1  LIG1        0.0292
     49 H           8.8675   -1.4239   -2.9929 H       1  LIG1        0.0288
     50 H           9.2551   -0.7162   -4.5355 H       1  LIG1        0.0288
     51 H           8.7967    0.9938   -2.5487 H       1  LIG1        0.0462
     52 H          10.3778    1.2187   -3.3721 H       1  LIG1        0.0462
     53 H          10.5342    0.6468   -0.7575 H       1  LIG1        0.1487
     54 H          10.2432    0.0118   -6.1136 H       1  LIG1        0.1492
     55 H           7.5624   -1.4172   -9.7691 H       1  LIG1        0.0290
     56 H           6.4881   -0.6164   -8.6616 H       1  LIG1        0.0290
     57 H           6.7425   -2.3987   -7.0111 H       1  LIG1        0.0301
     58 H           4.9571   -2.8660   -8.7942 H       1  LIG1        0.0268
     59 H           5.5917   -4.2075   -7.8808 H       1  LIG1        0.0268
     60 H           6.0074   -3.6202  -10.7919 H       1  LIG1        0.0265
     61 H           5.4665   -5.1009  -10.0137 H       1  LIG1        0.0265
     62 H           7.8201   -5.1092  -11.0788 H       1  LIG1        0.0265
     63 H           7.6586   -5.8009   -9.4755 H       1  LIG1        0.0265
     64 H           8.7116   -3.0451  -10.1411 H       1  LIG1        0.0265
     65 H           9.6280   -4.3780   -9.4807 H       1  LIG1        0.0265
     66 H           9.0051   -3.1432   -7.4284 H       1  LIG1        0.0268
     67 H           7.9716   -4.4993   -7.5129 H       1  LIG1        0.0268
     68 H           8.1956    1.6654   -8.6288 H       1  LIG1        0.1528
     69 H           9.8005    1.4083  -12.4229 H       1  LIG1        0.0749
     70 H           9.3418    3.1219  -12.3959 H       1  LIG1        0.0749
     71 H           7.0515    3.5036  -13.3441 H       1  LIG1        0.0621
     72 H           4.6416    2.9457  -13.2243 H       1  LIG1        0.0618
     73 H           3.8731    0.9280  -12.0008 H       1  LIG1        0.0618
     74 H           5.5345   -0.5844  -10.9622 H       1  LIG1        0.0618
     75 H           7.9385   -0.0733  -11.1603 H       1  LIG1        0.0621
     76 H          13.7505   -4.4105   -8.7756 H       1  LIG1        0.2446
@<TRIPOS>BOND
     1     1     2    1
     2     2     3    2
     3     2     4    1
     4     4     5    1
     5     6     8    1
     6     9    11    1
     7    11    12    1
     8    12    13    1
     9    13    14   am
    10     9    14    1
    11    14    15    2
    12     6    16    1
    13    16    17   am
    14    17    18    2
    15    19    21    1
    16    21    22    1
    17    22    23    1
    18    23    24    1
    19    24    25    1
    20    25    26    1
    21    26    27    1
    22    22    27    1
    23    19    28    1
    24    28    29   am
    25    29    30    2
    26    29    31    1
    27    31    32    1
    28    32    33    1
    29    33    34   ar
    30    34    35   ar
    31    35    36   ar
    32    36    37   ar
    33    37    38   ar
    34    33    38   ar
    35     5    39    1
    36    39    40    2
    37    39    41    2
    38    39    42    1
    39     9    10    1
    40     9     8    1
    41     6     7    1
    42     6     5    1
    43    19    20    1
    44    19    17    1
    45     1    43    1
    46     1    44    1
    47     1    45    1
    48     5    46    1
    49     8    47    1
    50     8    48    1
    51    11    49    1
    52    11    50    1
    53    12    51    1
    54    12    52    1
    55    13    53    1
    56    16    54    1
    57    21    55    1
    58    21    56    1
    59    22    57    1
    60    23    58    1
    61    23    59    1
    62    24    60    1
    63    24    61    1
    64    25    62    1
    65    25    63    1
    66    26    64    1
    67    26    65    1
    68    27    66    1
    69    27    67    1
    70    28    68    1
    71    32    69    1
    72    32    70    1
    73    34    71    1
    74    35    72    1
    75    36    73    1
    76    37    74    1
    77    38    75    1
    78    42    76    1
@<TRIPOS>MOLECULE
*****
 94 95 0 0 0
SMALL
GASTEIGER

@<TRIPOS>ATOM
      1 C           1.7628   -7.1908   -0.2365 C.3     1  LIG1        0.0000
      2 C           0.7791   -7.0377    0.9248 C.3     1  LIG1        0.0000
      3 C           0.6356   -5.6769    1.6377 C.3     1  LIG1        0.0000
      4 C          -0.5767   -7.6939    0.5653 C.3     1  LIG1        0.0000
      5 C          -1.4037   -7.1701   -0.6535 C.3     1  LIG1        0.0000
      6 H          -2.3307   -7.7542   -0.6953 H       1  LIG1        0.0000
      7 N          -0.7437   -7.3466   -1.9546 N.am    1  LIG1        0.0000
      8 C          -0.2970   -8.5005   -2.5557 C.2     1  LIG1        0.0000
      9 O           0.7396   -8.4760   -3.1779 O.2     1  LIG1        0.0000
     10 O          -1.1549   -9.5758   -2.4150 O.3     1  LIG1        0.0000
     11 C          -0.8482  -10.8407   -3.1502 C.3     1  LIG1        0.0000
     12 C          -1.1783  -10.6929   -4.6712 C.3     1  LIG1        0.0000
     13 C          -0.8962  -11.8730   -5.5987 C.ar    1  LIG1        0.0000
     14 C           0.4070  -12.3575   -5.8019 C.ar    1  LIG1        0.0000
     15 C           0.6824  -13.3734   -6.7177 C.ar    1  LIG1        0.0000
     16 C          -0.3364  -13.8795   -7.5105 C.ar    1  LIG1        0.0000
     17 C          -1.6422  -13.4343   -7.3169 C.ar    1  LIG1        0.0000
     18 C          -1.9253  -12.4546   -6.3546 C.ar    1  LIG1        0.0000
     19 C           0.5777  -11.3381   -2.8788 C.3     1  LIG1        0.0000
     20 C           0.8686  -11.4722   -1.4033 C.3     1  LIG1        0.0000
     21 N          -0.1603  -12.1883   -0.6615 N.am    1  LIG1        0.0000
     22 C           0.1198  -12.5008    0.6576 C.2     1  LIG1        0.0000
     23 O           1.2515  -12.3929    1.1542 O.2     1  LIG1        0.0000
     24 O          -0.9679  -12.9923    1.3057 O.3     1  LIG1        0.0000
     25 C          -0.7999  -13.9224    2.4002 C.3     1  LIG1        0.0000
     26 C          -0.3639  -13.1893    3.6721 C.3     1  LIG1        0.0000
     27 C          -2.1439  -14.6689    2.5656 C.3     1  LIG1        0.0000
     28 C           0.2054  -15.0051    1.9987 C.3     1  LIG1        0.0000
     29 C          -1.5577  -12.0975   -1.0648 C.3     1  LIG1        0.0000
     30 C          -1.7812  -11.9163   -2.5544 C.3     1  LIG1        0.0000
     31 C          -1.7815   -5.6561   -0.4514 C.2     1  LIG1        0.0000
     32 O          -2.3123   -5.2479    0.5778 O.2     1  LIG1        0.0000
     33 N          -1.4114   -4.8168   -1.4974 N.am    1  LIG1        0.0000
     34 C          -1.5302   -3.3156   -1.5111 C.3     1  LIG1        0.0000
     35 H          -2.4172   -3.0883   -0.9035 H       1  LIG1        0.0000
     36 C          -0.2899   -2.6456   -0.8183 C.3     1  LIG1        0.0000
     37 C           1.1224   -2.8377   -1.4432 C.3     1  LIG1        0.0000
     38 H           1.1485   -2.4361   -2.4591 H       1  LIG1        0.0000
     39 C           1.6123   -4.2791   -1.4772 C.3     1  LIG1        0.0000
     40 C           3.0597   -4.3081   -1.0180 C.3     1  LIG1        0.0000
     41 N           3.3362   -2.9935   -0.5867 N.am    1  LIG1        0.0000
     42 C           2.2365   -2.1599   -0.6536 C.2     1  LIG1        0.0000
     43 O           2.2375   -1.0549   -0.1605 O.2     1  LIG1        0.0000
     44 C          -1.7873   -2.8424   -2.9718 C.3     1  LIG1        0.0000
     45 O          -2.8953   -3.5962   -3.5617 O.3     1  LIG1        0.0000
     46 S          -2.0259   -1.0327   -3.1912 S.3     1  LIG1        0.0000
     47 O          -0.7988   -0.3815   -2.7576 O.2     1  LIG1        0.0000
     48 O          -2.3146   -0.8965   -4.6184 O.2     1  LIG1        0.0000
     49 O          -3.2293   -0.6484   -2.4492 O.co2   1  LIG1       -1.0000
     50 NA         -4.4902    0.5470   -3.5994 Na      2  LIG2        0.0000
     51 H           2.7668   -6.8455   -0.0029 H       1  LIG1        0.0000
     52 H           1.4505   -6.7017   -1.1508 H       1  LIG1        0.0000
     53 H           1.8589   -8.2447   -0.5095 H       1  LIG1        0.0000
     54 H           1.2252   -7.6610    1.7098 H       1  LIG1        0.0000
     55 H           0.2441   -4.8606    1.0367 H       1  LIG1        0.0000
     56 H           1.5908   -5.3379    2.0522 H       1  LIG1        0.0000
     57 H          -0.0603   -5.7700    2.4831 H       1  LIG1        0.0000
     58 H          -1.2053   -7.6517    1.4648 H       1  LIG1        0.0000
     59 H          -0.3635   -8.7596    0.4072 H       1  LIG1        0.0000
     60 H          -0.1281   -6.5870   -2.2048 H       1  LIG1        0.0000
     61 H          -0.6634   -9.8179   -5.0865 H       1  LIG1        0.0000
     62 H          -2.2450  -10.4321   -4.7561 H       1  LIG1        0.0000
     63 H           1.2547  -11.9478   -5.2629 H       1  LIG1        0.0000
     64 H           1.6999  -13.7410   -6.8248 H       1  LIG1        0.0000
     65 H          -0.1086  -14.6094   -8.2824 H       1  LIG1        0.0000
     66 H          -2.4411  -13.8430   -7.9304 H       1  LIG1        0.0000
     67 H          -2.9571  -12.1340   -6.2294 H       1  LIG1        0.0000
     68 H           1.3272  -10.6934   -3.3481 H       1  LIG1        0.0000
     69 H           0.7125  -12.3377   -3.3035 H       1  LIG1        0.0000
     70 H           0.9960  -10.4895   -0.9430 H       1  LIG1        0.0000
     71 H           1.8209  -12.0078   -1.2912 H       1  LIG1        0.0000
     72 H          -1.0329  -12.3579    3.9220 H       1  LIG1        0.0000
     73 H           0.6295  -12.7440    3.5429 H       1  LIG1        0.0000
     74 H          -0.3033  -13.8661    4.5303 H       1  LIG1        0.0000
     75 H          -2.9878  -14.0188    2.8166 H       1  LIG1        0.0000
     76 H          -2.0700  -15.4564    3.3254 H       1  LIG1        0.0000
     77 H          -2.4179  -15.1647    1.6223 H       1  LIG1        0.0000
     78 H           1.2268  -14.6228    1.9467 H       1  LIG1        0.0000
     79 H          -0.0497  -15.3847    1.0021 H       1  LIG1        0.0000
     80 H           0.1973  -15.8337    2.7101 H       1  LIG1        0.0000
     81 H          -2.0084  -11.2752   -0.5010 H       1  LIG1        0.0000
     82 H          -2.0680  -13.0185   -0.7512 H       1  LIG1        0.0000
     83 H          -2.8365  -11.6661   -2.7135 H       1  LIG1        0.0000
     84 H          -1.6053  -12.8818   -3.0493 H       1  LIG1        0.0000
     85 H          -1.4587   -5.2492   -2.4137 H       1  LIG1        0.0000
     86 H          -0.2654   -2.9650    0.2303 H       1  LIG1        0.0000
     87 H          -0.4773   -1.5699   -0.7380 H       1  LIG1        0.0000
     88 H           1.4973   -4.7419   -2.4621 H       1  LIG1        0.0000
     89 H           1.0075   -4.8506   -0.7903 H       1  LIG1        0.0000
     90 H           3.7555   -4.6157   -1.8032 H       1  LIG1        0.0000
     91 H           3.2240   -4.9416   -0.1443 H       1  LIG1        0.0000
     92 H           4.1061   -2.7423    0.0211 H       1  LIG1        0.0000
     93 H          -0.9242   -3.1030   -3.5875 H       1  LIG1        0.0000
     94 H          -3.1124   -3.0664   -4.3594 H       1  LIG1        0.0000
@<TRIPOS>BOND
     1     1     2    1
     2     2     3    1
     3     2     4    1
     4     5     7    1
     5     7     8   am
     6     8     9    2
     7     8    10    1
     8    10    11    1
     9    11    12    1
    10    12    13    1
    11    13    14   ar
    12    14    15   ar
    13    15    16   ar
    14    16    17   ar
    15    17    18   ar
    16    13    18   ar
    17    11    19    1
    18    19    20    1
    19    20    21    1
    20    21    22   am
    21    22    23    2
    22    22    24    1
    23    24    25    1
    24    25    26    1
    25    25    27    1
    26    25    28    1
    27    21    29    1
    28    29    30    1
    29    11    30    1
    30     5    31    1
    31    31    32    2
    32    31    33   am
    33    33    34    1
    34    34    35    1
    35    34    36    1
    36    37    39    1
    37    39    40    1
    38    40    41    1
    39    41    42   am
    40    37    42    1
    41    42    43    2
    42    34    44    1
    43    44    45    1
    44    44    46    1
    45    46    47    2
    46    46    48    2
    47    46    49    1
    48    37    38    1
    49    37    36    1
    50     5     6    1
    51     5     4    1
    52     1    51    1
    53     1    52    1
    54     1    53    1
    55     2    54    1
    56     3    55    1
    57     3    56    1
    58     3    57    1
    59     4    58    1
    60     4    59    1
    61     7    60    1
    62    12    61    1
    63    12    62    1
    64    14    63    1
    65    15    64    1
    66    16    65    1
    67    17    66    1
    68    18    67    1
    69    19    68    1
    70    19    69    1
    71    20    70    1
    72    20    71    1
    73    26    72    1
    74    26    73    1
    75    26    74    1
    76    27    75    1
    77    27    76    1
    78    27    77    1
    79    28    78    1
    80    28    79    1
    81    28    80    1
    82    29    81    1
    83    29    82    1
    84    30    83    1
    85    30    84    1
    86    33    85    1
    87    36    86    1
    88    36    87    1
    89    39    88    1
    90    39    89    1
    91    40    90    1
    92    40    91    1
    93    41    92    1
    94    44    93    1
    95    45    94    1
@<TRIPOS>MOLECULE
*****
 94 96 0 0 0
SMALL
GASTEIGER

@<TRIPOS>ATOM
      1 C          16.3830    7.8213    0.7849 C.3     1  LIG1       -0.0626
      2 C          15.6329    6.8721   -0.1501 C.3     1  LIG1       -0.0446
      3 C          16.6391    6.1974   -1.0866 C.3     1  LIG1       -0.0626
      4 C          14.7756    5.8503    0.5943 C.3     1  LIG1       -0.0235
      5 C          13.6417    6.4297    1.4606 C.3     1  LIG1        0.1027
      6 H          14.0014    7.1965    2.1488 H       1  LIG1        0.0596
      7 N          13.1628    5.2824    2.2415 N.am    1  LIG1       -0.2698
      8 C          12.7652    5.3144    3.5101 C.2     1  LIG1        0.4014
      9 O          12.0357    4.3729    3.9499 O.2     1  LIG1       -0.2264
     10 O          13.1182    6.4277    4.1586 O.3     1  LIG1       -0.4434
     11 C          12.6586    6.7862    5.4947 C.3     1  LIG1        0.1219
     12 C          11.3995    7.7076    5.3690 C.3     1  LIG1        0.0126
     13 C          10.1511    7.0617    4.8047 C.ar    1  LIG1       -0.0436
     14 C           9.0384    6.8237    5.6125 C.ar    1  LIG1       -0.0584
     15 C           7.9717    6.0538    5.1377 C.ar    1  LIG1       -0.0615
     16 C           8.0277    5.4714    3.8726 C.ar    1  LIG1       -0.0617
     17 C           9.0986    5.7546    3.0404 C.ar    1  LIG1       -0.0615
     18 C          10.0997    6.6163    3.4824 C.ar    1  LIG1       -0.0584
     19 C          12.4007    5.5784    6.4226 C.3     1  LIG1        0.0035
     20 C          13.6793    4.8133    6.6953 C.3     1  LIG1        0.0214
     21 N          14.6151    5.7038    7.3525 N.am    1  LIG1       -0.2672
     22 C          15.5386    5.1562    8.2171 C.2     1  LIG1        0.4034
     23 O          16.7235    5.4655    8.1714 O.2     1  LIG1       -0.2262
     24 O          14.9684    4.2782    9.0921 O.3     1  LIG1       -0.4445
     25 C          15.7154    3.1395    9.5939 C.3     1  LIG1        0.1068
     26 C          15.4814    2.0240    8.5714 C.3     1  LIG1       -0.0253
     27 C          17.2072    3.4072    9.8025 C.3     1  LIG1       -0.0253
     28 C          15.1259    2.6986   10.9481 C.3     1  LIG1       -0.0253
     29 C          15.0250    6.8432    6.5542 C.3     1  LIG1        0.0214
     30 C          13.8088    7.6526    6.1039 C.3     1  LIG1        0.0035
     31 C          12.4512    7.0246    0.6248 C.2     1  LIG1        0.2338
     32 O          11.8560    6.3543   -0.2224 O.2     1  LIG1       -0.2738
     33 N          12.0621    8.3245    0.9062 N.am    1  LIG1       -0.3067
     34 C          11.0085    9.0642    0.1301 C.3     1  LIG1        0.0724
     35 H          10.9563    8.5911   -0.8586 H       1  LIG1        0.0542
     36 C           9.6292    8.8840    0.8431 C.3     1  LIG1       -0.0192
     37 C           8.3799    9.4708    0.1456 C.3     1  LIG1        0.0388
     38 H           8.4839   10.5347   -0.0840 H       1  LIG1        0.0395
     39 C           7.0743    9.2507    0.9464 C.3     1  LIG1       -0.0262
     40 C           6.6412    7.8466    0.5658 C.3     1  LIG1        0.0123
     41 N           7.0888    7.7445   -0.7921 N.am    1  LIG1       -0.3151
     42 C           8.0538    8.6785   -1.1019 C.2     1  LIG1        0.2162
     43 O           8.6024    8.8140   -2.1858 O.2     1  LIG1       -0.2755
     44 C          11.3894   10.5485   -0.0551 C.3     1  LIG1        0.2173
     45 O          11.5111   11.1788    1.2580 O.3     1  LIG1       -0.3677
     46 S          12.8691   10.7938   -1.1135 S.O2    1  LIG1        0.1087
     47 O          12.6567   10.2988   -2.4429 O.2     1  LIG1       -0.1448
     48 O          13.3759   12.1204   -0.8459 O.2     1  LIG1       -0.1448
     49 O          13.9034    9.7568   -0.4241 O.3     1  LIG1       -0.2518
     50 H          15.8077    8.1015    1.6695 H       1  LIG1        0.0232
     51 H          16.6251    8.7460    0.2513 H       1  LIG1        0.0232
     52 H          17.3247    7.3811    1.1314 H       1  LIG1        0.0232
     53 H          14.9591    7.4418   -0.7863 H       1  LIG1        0.0296
     54 H          17.3423    5.5602   -0.5390 H       1  LIG1        0.0232
     55 H          17.2188    6.9586   -1.6203 H       1  LIG1        0.0232
     56 H          16.1323    5.5818   -1.8366 H       1  LIG1        0.0232
     57 H          15.4282    5.2418    1.2376 H       1  LIG1        0.0290
     58 H          14.3363    5.1511   -0.1313 H       1  LIG1        0.0290
     59 H          12.9275    4.4207    1.7344 H       1  LIG1        0.1528
     60 H          11.6412    8.5819    4.7500 H       1  LIG1        0.0352
     61 H          11.1661    8.0934    6.3708 H       1  LIG1        0.0352
     62 H           9.0046    7.2100    6.6277 H       1  LIG1        0.0620
     63 H           7.1140    5.8700    5.7772 H       1  LIG1        0.0618
     64 H           7.2457    4.7965    3.5379 H       1  LIG1        0.0618
     65 H           9.1853    5.2870    2.0618 H       1  LIG1        0.0618
     66 H          10.8942    6.8634    2.7930 H       1  LIG1        0.0620
     67 H          11.6552    4.8879    6.0270 H       1  LIG1        0.0319
     68 H          11.9975    5.9340    7.3773 H       1  LIG1        0.0319
     69 H          14.1705    4.4519    5.7798 H       1  LIG1        0.0467
     70 H          13.4727    3.9251    7.2974 H       1  LIG1        0.0467
     71 H          15.7914    2.3437    7.5707 H       1  LIG1        0.0268
     72 H          14.4110    1.7895    8.4961 H       1  LIG1        0.0268
     73 H          16.0168    1.1091    8.8359 H       1  LIG1        0.0268
     74 H          17.7143    3.6556    8.8664 H       1  LIG1        0.0268
     75 H          17.7275    2.5291   10.1950 H       1  LIG1        0.0268
     76 H          17.3453    4.2453   10.4963 H       1  LIG1        0.0268
     77 H          14.0742    2.4012   10.8674 H       1  LIG1        0.0268
     78 H          15.1694    3.5056   11.6883 H       1  LIG1        0.0268
     79 H          15.6829    1.8428   11.3516 H       1  LIG1        0.0268
     80 H          15.6187    6.4830    5.7051 H       1  LIG1        0.0467
     81 H          15.6840    7.4814    7.1579 H       1  LIG1        0.0467
     82 H          14.1547    8.4112    5.3887 H       1  LIG1        0.0319
     83 H          13.4293    8.1845    6.9854 H       1  LIG1        0.0319
     84 H          12.5955    8.8780    1.5780 H       1  LIG1        0.1492
     85 H           9.6871    9.3011    1.8569 H       1  LIG1        0.0292
     86 H           9.4731    7.8067    0.9628 H       1  LIG1        0.0292
     87 H           6.3100    9.9572    0.5883 H       1  LIG1        0.0288
     88 H           7.1736    9.3949    2.0254 H       1  LIG1        0.0288
     89 H           5.5589    7.6976    0.6189 H       1  LIG1        0.0462
     90 H           7.1440    7.0816    1.1624 H       1  LIG1        0.0462
     91 H           6.7884    7.0467   -1.4623 H       1  LIG1        0.1487
     92 H          10.6097   11.0919   -0.5957 H       1  LIG1        0.0885
     93 H          12.1635   11.8976    1.1460 H       1  LIG1        0.2119
     94 H          14.0837    9.0743   -1.0913 H       1  LIG1        0.2446
@<TRIPOS>BOND
     1     1     2    1
     2     2     3    1
     3     2     4    1
     4     5     7    1
     5     7     8   am
     6     8     9    2
     7     8    10    1
     8    10    11    1
     9    11    12    1
    10    12    13    1
    11    13    14   ar
    12    14    15   ar
    13    15    16   ar
    14    16    17   ar
    15    17    18   ar
    16    13    18   ar
    17    11    19    1
    18    19    20    1
    19    20    21    1
    20    21    22   am
    21    22    23    2
    22    22    24    1
    23    24    25    1
    24    25    26    1
    25    25    27    1
    26    25    28    1
    27    21    29    1
    28    29    30    1
    29    11    30    1
    30     5    31    1
    31    31    32    2
    32    31    33   am
    33    33    34    1
    34    34    35    1
    35    34    36    1
    36    37    39    1
    37    39    40    1
    38    40    41    1
    39    41    42   am
    40    37    42    1
    41    42    43    2
    42    34    44    1
    43    44    45    1
    44    44    46    1
    45    46    47    2
    46    46    48    2
    47    46    49    1
    48     5     6    1
    49     5     4    1
    50    37    38    1
    51    37    36    1
    52     1    50    1
    53     1    51    1
    54     1    52    1
    55     2    53    1
    56     3    54    1
    57     3    55    1
    58     3    56    1
    59     4    57    1
    60     4    58    1
    61     7    59    1
    62    12    60    1
    63    12    61    1
    64    14    62    1
    65    15    63    1
    66    16    64    1
    67    17    65    1
    68    18    66    1
    69    19    67    1
    70    19    68    1
    71    20    69    1
    72    20    70    1
    73    26    71    1
    74    26    72    1
    75    26    73    1
    76    27    74    1
    77    27    75    1
    78    27    76    1
    79    28    77    1
    80    28    78    1
    81    28    79    1
    82    29    80    1
    83    29    81    1
    84    30    82    1
    85    30    83    1
    86    33    84    1
    87    36    85    1
    88    36    86    1
    89    39    87    1
    90    39    88    1
    91    40    89    1
    92    40    90    1
    93    41    91    1
    94    44    92    1
    95    45    93    1
    96    49    94    1
