@<TRIPOS>MOLECULE
*****
 84 86 0 0 0
SMALL
GASTEIGER

@<TRIPOS>ATOM
      1 C           0.9328    2.6135   -8.7795 C.3     1  LIG1       -0.0306
      2 C           1.4195    3.8968   -8.1312 C.3     1  LIG1        0.0900
      3 O           1.2032    3.8955   -6.7254 O.3     1  LIG1       -0.4618
      4 C          -0.1060    4.1231   -6.3334 C.2     1  LIG1        0.3317
      5 O          -1.1097    4.0797   -7.0433 O.2     1  LIG1       -0.2456
      6 C          -0.0537    4.6286   -4.9528 C.2     1  LIG1        0.0203
      7 C          -1.1551    5.2004   -4.4229 C.2     1  LIG1       -0.0572
      8 C          -1.1870    6.1381   -3.2523 C.3     1  LIG1        0.0427
      9 H          -2.2149    6.5168   -3.1695 H       1  LIG1        0.0543
     10 C          -0.2685    7.3821   -3.3477 C.3     1  LIG1       -0.0198
     11 C          -0.4298    8.4226   -4.4929 C.3     1  LIG1        0.0376
     12 H           0.3260    9.1887   -4.2476 H       1  LIG1        0.0395
     13 C          -1.7443    9.2168   -4.5851 C.3     1  LIG1       -0.0404
     14 C          -2.7317    8.8236   -5.6916 C.3     1  LIG1       -0.0367
     15 C          -2.3732    7.5460   -6.4093 C.3     1  LIG1        0.0116
     16 N          -0.9654    7.4773   -6.6930 N.am    1  LIG1       -0.3151
     17 C           0.0167    7.8992   -5.8449 C.2     1  LIG1        0.2162
     18 O           1.1963    7.8273   -6.1735 O.2     1  LIG1       -0.2755
     19 N          -1.0105    5.3257   -2.0453 N.am    1  LIG1       -0.3075
     20 C           0.1786    4.9457   -1.4611 C.2     1  LIG1        0.2341
     21 O           1.2734    5.3411   -1.8561 O.2     1  LIG1       -0.2738
     22 C           0.0761    3.9034   -0.2940 C.3     1  LIG1        0.1034
     23 H           0.5210    4.3800    0.5865 H       1  LIG1        0.0598
     24 C           0.9736    2.7050   -0.7329 C.3     1  LIG1       -0.0007
     25 C           1.2505    1.5862    0.2524 C.ar    1  LIG1       -0.0450
     26 C           0.9215    0.2577   -0.0731 C.ar    1  LIG1       -0.0558
     27 C           1.3130   -0.7996    0.7547 C.ar    1  LIG1       -0.0262
     28 C           2.0430   -0.5356    1.9058 C.ar    1  LIG1        0.1234
     29 F           2.4425   -1.5513    2.6831 F       1  LIG1       -0.2055
     30 C           2.3790    0.7675    2.2501 C.ar    1  LIG1       -0.0262
     31 C           1.9847    1.8274    1.4256 C.ar    1  LIG1       -0.0558
     32 N          -1.3254    3.5506    0.0631 N.am    1  LIG1       -0.3022
     33 C          -2.1059    4.3892    0.8556 C.2     1  LIG1        0.2342
     34 O          -1.6778    5.4862    1.2176 O.2     1  LIG1       -0.2738
     35 C          -3.5827    3.9461    1.1813 C.3     1  LIG1        0.1020
     36 H          -3.5324    2.9115    1.5399 H       1  LIG1        0.0597
     37 N          -4.1187    4.7628    2.2915 N.am    1  LIG1       -0.2984
     38 C          -5.0204    4.2772    3.2445 C.2     1  LIG1        0.2663
     39 O          -5.4610    3.1499    3.2003 O.2     1  LIG1       -0.2684
     40 C          -5.3534    5.2165    4.3440 C.ar    1  LIG1        0.1678
     41 C          -5.8008    4.8692    5.6523 C.ar    1  LIG1        0.0125
     42 C          -5.9314    6.0658    6.3167 C.ar    1  LIG1        0.1350
     43 C          -6.2898    6.4388    7.7025 C.3     1  LIG1       -0.0037
     44 O          -5.6258    7.0765    5.4586 O.2     1  LIG1       -0.3592
     45 N          -5.2477    6.5503    4.2283 N.ar    1  LIG1       -0.0734
     46 C          -4.5484    4.0151   -0.0368 C.3     1  LIG1       -0.0197
     47 C          -4.6695    5.4170   -0.6483 C.3     1  LIG1       -0.0605
     48 C          -4.2447    2.9734   -1.1183 C.3     1  LIG1       -0.0605
     49 H           1.2213    2.5817   -9.8335 H       1  LIG1        0.0262
     50 H          -0.1567    2.5331   -8.7287 H       1  LIG1        0.0262
     51 H           1.3417    1.7397   -8.2640 H       1  LIG1        0.0262
     52 H           0.9469    4.7783   -8.5851 H       1  LIG1        0.0695
     53 H           2.4967    4.0010   -8.2801 H       1  LIG1        0.0695
     54 H           0.9167    4.7045   -4.4647 H       1  LIG1        0.0686
     55 H          -2.0875    5.0831   -4.9673 H       1  LIG1        0.0593
     56 H           0.7728    7.0426   -3.4000 H       1  LIG1        0.0293
     57 H          -0.3500    7.9251   -2.3954 H       1  LIG1        0.0293
     58 H          -1.4721   10.2622   -4.8008 H       1  LIG1        0.0273
     59 H          -2.2470    9.2561   -3.6131 H       1  LIG1        0.0273
     60 H          -2.7764    9.6292   -6.4355 H       1  LIG1        0.0280
     61 H          -3.7417    8.7378   -5.2746 H       1  LIG1        0.0280
     62 H          -2.9101    7.4408   -7.3569 H       1  LIG1        0.0462
     63 H          -2.6844    6.7100   -5.7936 H       1  LIG1        0.0462
     64 H          -0.6395    7.0797   -7.5666 H       1  LIG1        0.1487
     65 H          -1.8445    5.0533   -1.5490 H       1  LIG1        0.1493
     66 H           1.9696    3.0930   -1.0016 H       1  LIG1        0.0336
     67 H           0.5911    2.2774   -1.6702 H       1  LIG1        0.0336
     68 H           0.3949    0.0261   -0.9966 H       1  LIG1        0.0621
     69 H           1.0760   -1.8275    0.4970 H       1  LIG1        0.0646
     70 H           2.9665    0.9477    3.1454 H       1  LIG1        0.0646
     71 H           2.2992    2.8364    1.6850 H       1  LIG1        0.0621
     72 H          -1.6399    2.6113   -0.1506 H       1  LIG1        0.1495
     73 H          -3.8143    5.7268    2.3905 H       1  LIG1        0.1498
     74 H          -5.9587    3.8834    6.0626 H       1  LIG1        0.0676
     75 H          -6.5764    5.5545    8.2823 H       1  LIG1        0.0309
     76 H          -7.1300    7.1400    7.7256 H       1  LIG1        0.0309
     77 H          -5.4399    6.9060    8.2117 H       1  LIG1        0.0309
     78 H          -5.5550    3.7684    0.3302 H       1  LIG1        0.0318
     79 H          -3.7003    5.8612   -0.8829 H       1  LIG1        0.0233
     80 H          -5.1914    6.0935    0.0369 H       1  LIG1        0.0233
     81 H          -5.2547    5.3895   -1.5750 H       1  LIG1        0.0233
     82 H          -3.2068    2.9852   -1.4496 H       1  LIG1        0.0233
     83 H          -4.8530    3.1426   -2.0136 H       1  LIG1        0.0233
     84 H          -4.4756    1.9683   -0.7491 H       1  LIG1        0.0233
@<TRIPOS>BOND
     1     1     2    1
     2     2     3    1
     3     3     4    1
     4     4     5    2
     5     4     6    1
     6     6     7    2
     7     8    10    1
     8    11    13    1
     9    13    14    1
    10    14    15    1
    11    15    16    1
    12    16    17   am
    13    11    17    1
    14    17    18    2
    15     8    19    1
    16    19    20   am
    17    20    21    2
    18    22    24    1
    19    24    25    1
    20    25    26   ar
    21    26    27   ar
    22    27    28   ar
    23    28    29    1
    24    28    30   ar
    25    30    31   ar
    26    25    31   ar
    27    22    32    1
    28    32    33   am
    29    33    34    2
    30    33    35    1
    31    35    36    1
    32    35    37    1
    33    37    38   am
    34    38    39    2
    35    38    40    1
    36    40    41   ar
    37    41    42   ar
    38    42    43    1
    39    42    44   ar
    40    44    45   ar
    41    40    45   ar
    42    35    46    1
    43    46    47    1
    44    46    48    1
    45     8     9    1
    46     8     7    1
    47    11    12    1
    48    11    10    1
    49    22    23    1
    50    22    20    1
    51     1    49    1
    52     1    50    1
    53     1    51    1
    54     2    52    1
    55     2    53    1
    56     6    54    1
    57     7    55    1
    58    10    56    1
    59    10    57    1
    60    13    58    1
    61    13    59    1
    62    14    60    1
    63    14    61    1
    64    15    62    1
    65    15    63    1
    66    16    64    1
    67    19    65    1
    68    24    66    1
    69    24    67    1
    70    26    68    1
    71    27    69    1
    72    30    70    1
    73    31    71    1
    74    32    72    1
    75    37    73    1
    76    41    74    1
    77    43    75    1
    78    43    76    1
    79    43    77    1
    80    46    78    1
    81    47    79    1
    82    47    80    1
    83    47    81    1
    84    48    82    1
    85    48    83    1
    86    48    84    1
@<TRIPOS>MOLECULE
*****
 81 83 0 0 0
SMALL
GASTEIGER

@<TRIPOS>ATOM
      1 C           3.5686   -3.1614   -8.3632 C.3     1  LIG1       -0.0306
      2 C           3.4269   -2.3135   -9.6069 C.3     1  LIG1        0.0900
      3 O           2.8899   -1.0414   -9.2708 O.3     1  LIG1       -0.4618
      4 C           1.5326   -0.9706   -9.1748 C.2     1  LIG1        0.3317
      5 O           0.7373   -1.8849   -9.2384 O.2     1  LIG1       -0.2456
      6 C           1.1409    0.4504   -9.0178 C.2     1  LIG1        0.0203
      7 C           1.9792    1.4404   -9.3587 C.2     1  LIG1       -0.0572
      8 C           1.6701    2.9012   -9.2480 C.3     1  LIG1        0.0427
      9 H           1.0187    3.0809   -8.3880 H       1  LIG1        0.0543
     10 C           1.0204    3.4595  -10.5309 C.3     1  LIG1       -0.0197
     11 C          -0.3399    2.8390  -10.8977 C.3     1  LIG1        0.0389
     12 H          -0.2673    1.7581  -11.0535 H       1  LIG1        0.0395
     13 C          -0.9398    3.4819  -12.1596 C.3     1  LIG1       -0.0262
     14 C          -1.7659    4.6443  -11.6386 C.3     1  LIG1        0.0123
     15 N          -2.1510    4.2155  -10.3295 N.am    1  LIG1       -0.3151
     16 C          -1.4103    3.1487   -9.8761 C.2     1  LIG1        0.2162
     17 O          -1.5857    2.5699   -8.8088 O.2     1  LIG1       -0.2755
     18 N           2.9542    3.5667   -9.0228 N.am    1  LIG1       -0.3075
     19 C           3.2128    4.3522   -7.9134 C.2     1  LIG1        0.2341
     20 O           2.3510    4.6173   -7.0792 O.2     1  LIG1       -0.2738
     21 C           4.5911    5.0702   -7.9285 C.3     1  LIG1        0.1034
     22 H           4.8917    5.2212   -6.8843 H       1  LIG1        0.0598
     23 C           4.4356    6.4267   -8.6540 C.3     1  LIG1       -0.0007
     24 C           5.6847    7.2920   -8.6736 C.ar    1  LIG1       -0.0450
     25 C           5.9156    8.2418   -7.6648 C.ar    1  LIG1       -0.0558
     26 C           7.0528    9.0567   -7.7020 C.ar    1  LIG1       -0.0262
     27 C           7.9641    8.9222   -8.7418 C.ar    1  LIG1        0.1234
     28 F           9.0473    9.7099   -8.7811 F       1  LIG1       -0.2055
     29 C           7.7597    7.9878   -9.7475 C.ar    1  LIG1       -0.0262
     30 C           6.6224    7.1759   -9.7153 C.ar    1  LIG1       -0.0558
     31 N           5.5945    4.2250   -8.5973 N.am    1  LIG1       -0.3022
     32 C           6.3091    3.2535   -7.9216 C.2     1  LIG1        0.2342
     33 O           6.1459    3.0219   -6.7299 O.2     1  LIG1       -0.2738
     34 C           7.3970    2.5663   -8.7953 C.3     1  LIG1        0.1020
     35 H           7.0301    2.5541   -9.8264 H       1  LIG1        0.0597
     36 N           8.5895    3.4354   -8.7583 N.am    1  LIG1       -0.2984
     37 C           9.5243    3.4711   -9.7905 C.2     1  LIG1        0.2663
     38 O           9.4005    2.8309  -10.8147 O.2     1  LIG1       -0.2684
     39 C          10.6914    4.3268   -9.5495 C.ar    1  LIG1        0.1678
     40 C          12.0097    4.1860  -10.0923 C.ar    1  LIG1        0.0125
     41 C          12.6990    5.2770   -9.6145 C.ar    1  LIG1        0.1350
     42 C          14.0873    5.7693   -9.7293 C.3     1  LIG1       -0.0037
     43 O          11.8658    6.0196   -8.8393 O.2     1  LIG1       -0.3592
     44 N          10.6269    5.4111   -8.7687 N.ar    1  LIG1       -0.0734
     45 C           7.6738    1.1017   -8.3418 C.3     1  LIG1       -0.0197
     46 C           6.4437    0.1841   -8.4826 C.3     1  LIG1       -0.0605
     47 C           8.7926    0.4437   -9.1566 C.3     1  LIG1       -0.0605
     48 H           3.9991   -4.1331   -8.6139 H       1  LIG1        0.0262
     49 H           2.5985   -3.3159   -7.8809 H       1  LIG1        0.0262
     50 H           4.2100   -2.6620   -7.6294 H       1  LIG1        0.0262
     51 H           2.8156   -2.7988  -10.3741 H       1  LIG1        0.0695
     52 H           4.4125   -2.1246  -10.0460 H       1  LIG1        0.0695
     53 H           0.1231    0.6188   -8.6813 H       1  LIG1        0.0686
     54 H           2.9701    1.1857   -9.7287 H       1  LIG1        0.0593
     55 H           1.7061    3.3145  -11.3780 H       1  LIG1        0.0293
     56 H           0.9149    4.5458  -10.4121 H       1  LIG1        0.0293
     57 H          -1.6041    2.7547  -12.6453 H       1  LIG1        0.0288
     58 H          -0.1937    3.7904  -12.8982 H       1  LIG1        0.0288
     59 H          -2.6579    4.8278  -12.2432 H       1  LIG1        0.0462
     60 H          -1.1829    5.5644  -11.5491 H       1  LIG1        0.0462
     61 H          -2.9034    4.6055   -9.7721 H       1  LIG1        0.1487
     62 H           3.7586    3.2709   -9.5594 H       1  LIG1        0.1493
     63 H           3.6169    7.0034   -8.2013 H       1  LIG1        0.0336
     64 H           4.1209    6.2593   -9.6935 H       1  LIG1        0.0336
     65 H           5.2074    8.3679   -6.8482 H       1  LIG1        0.0621
     66 H           7.2328    9.7986   -6.9299 H       1  LIG1        0.0646
     67 H           8.4850    7.9019  -10.5509 H       1  LIG1        0.0646
     68 H           6.4751    6.4627  -10.5213 H       1  LIG1        0.0621
     69 H           5.8357    4.4317   -9.5567 H       1  LIG1        0.1495
     70 H           8.7890    3.9846   -7.9340 H       1  LIG1        0.1498
     71 H          12.3879    3.3956  -10.7228 H       1  LIG1        0.0676
     72 H          14.1262    6.8616   -9.6524 H       1  LIG1        0.0309
     73 H          14.5461    5.4847  -10.6815 H       1  LIG1        0.0309
     74 H          14.6949    5.3551   -8.9186 H       1  LIG1        0.0309
     75 H           7.9763    1.0974   -7.2870 H       1  LIG1        0.0318
     76 H           6.0056    0.2478   -9.4848 H       1  LIG1        0.0233
     77 H           5.6685    0.4138   -7.7467 H       1  LIG1        0.0233
     78 H           6.7298   -0.8646   -8.3250 H       1  LIG1        0.0233
     79 H           8.5410    0.4354  -10.2233 H       1  LIG1        0.0233
     80 H           8.9437   -0.5951   -8.8464 H       1  LIG1        0.0233
     81 H           9.7489    0.9518   -9.0161 H       1  LIG1        0.0233
@<TRIPOS>BOND
     1     1     2    1
     2     2     3    1
     3     3     4    1
     4     4     5    2
     5     4     6    1
     6     6     7    2
     7     8    10    1
     8    11    13    1
     9    13    14    1
    10    14    15    1
    11    15    16   am
    12    11    16    1
    13    16    17    2
    14     8    18    1
    15    18    19   am
    16    19    20    2
    17    21    23    1
    18    23    24    1
    19    24    25   ar
    20    25    26   ar
    21    26    27   ar
    22    27    28    1
    23    27    29   ar
    24    29    30   ar
    25    24    30   ar
    26    21    31    1
    27    31    32   am
    28    32    33    2
    29    32    34    1
    30    34    35    1
    31    34    36    1
    32    36    37   am
    33    37    38    2
    34    37    39    1
    35    39    40   ar
    36    40    41   ar
    37    41    42    1
    38    41    43   ar
    39    43    44   ar
    40    39    44   ar
    41    34    45    1
    42    45    46    1
    43    45    47    1
    44    11    12    1
    45    11    10    1
    46     8     9    1
    47     8     7    1
    48    21    22    1
    49    21    19    1
    50     1    48    1
    51     1    49    1
    52     1    50    1
    53     2    51    1
    54     2    52    1
    55     6    53    1
    56     7    54    1
    57    10    55    1
    58    10    56    1
    59    13    57    1
    60    13    58    1
    61    14    59    1
    62    14    60    1
    63    15    61    1
    64    18    62    1
    65    23    63    1
    66    23    64    1
    67    25    65    1
    68    26    66    1
    69    29    67    1
    70    30    68    1
    71    31    69    1
    72    36    70    1
    73    40    71    1
    74    42    72    1
    75    42    73    1
    76    42    74    1
    77    45    75    1
    78    46    76    1
    79    46    77    1
    80    46    78    1
    81    47    79    1
    82    47    80    1
    83    47    81    1
@<TRIPOS>MOLECULE
*****
 86 88 0 0 0
SMALL
GASTEIGER

@<TRIPOS>ATOM
      1 C          15.7913    7.6299    2.3711 C.3     1  LIG1       -0.0306
      2 C          15.7056    7.6351    0.8553 C.3     1  LIG1        0.0900
      3 O          14.4146    8.1362    0.4608 O.3     1  LIG1       -0.4618
      4 C          13.3976    7.2407    0.4999 C.2     1  LIG1        0.3317
      5 O          13.4955    6.0403    0.7449 O.2     1  LIG1       -0.2456
      6 C          12.1306    7.9451    0.2147 C.2     1  LIG1        0.0203
      7 C          10.9851    7.2625    0.0128 C.2     1  LIG1       -0.0572
      8 C           9.6834    7.8721   -0.4623 C.3     1  LIG1        0.0427
      9 H           9.8948    8.7216   -1.1212 H       1  LIG1        0.0543
     10 C           8.7208    8.3106    0.6690 C.3     1  LIG1       -0.0197
     11 C           9.2517    9.4097    1.6044 C.3     1  LIG1        0.0389
     12 H          10.2120    9.1410    2.0521 H       1  LIG1        0.0395
     13 C           8.2557    9.7799    2.7227 C.3     1  LIG1       -0.0262
     14 C           7.3600   10.8243    2.0839 C.3     1  LIG1        0.0123
     15 N           8.2507   11.4962    1.1898 N.am    1  LIG1       -0.3151
     16 C           9.3556   10.7286    0.8679 C.2     1  LIG1        0.2162
     17 O          10.2328   11.0529    0.0921 O.2     1  LIG1       -0.2755
     18 N           9.0232    6.8224   -1.2535 N.am    1  LIG1       -0.3075
     19 C           8.5260    6.9758   -2.5327 C.2     1  LIG1        0.2341
     20 O           8.5558    8.0409   -3.1482 O.2     1  LIG1       -0.2738
     21 C           7.8647    5.6935   -3.1417 C.3     1  LIG1        0.1034
     22 H           7.5740    5.0230   -2.3242 H       1  LIG1        0.0598
     23 C           8.7679    4.9713   -4.1353 C.3     1  LIG1       -0.0007
     24 C          10.0694    4.5203   -3.5382 C.ar    1  LIG1       -0.0451
     25 C          11.1942    5.3532   -3.5807 C.ar    1  LIG1       -0.0585
     26 C          12.4067    4.9155   -3.0552 C.ar    1  LIG1       -0.0615
     27 C          12.5001    3.6484   -2.4822 C.ar    1  LIG1       -0.0617
     28 C          11.3779    2.8239   -2.4161 C.ar    1  LIG1       -0.0615
     29 C          10.1620    3.2610   -2.9345 C.ar    1  LIG1       -0.0585
     30 N           6.6377    6.1416   -3.7987 N.am    1  LIG1       -0.3022
     31 C           5.5997    5.3531   -4.2229 C.2     1  LIG1        0.2343
     32 O           5.7406    4.1443   -4.3739 O.2     1  LIG1       -0.2738
     33 C           4.2282    6.0806   -4.4516 C.3     1  LIG1        0.1048
     34 H           4.0000    5.8619   -5.5032 H       1  LIG1        0.0598
     35 N           3.1502    5.4944   -3.6870 N.am    1  LIG1       -0.2696
     36 C           2.4379    4.4070   -4.1783 C.2     1  LIG1        0.4012
     37 O           2.3463    4.0955   -5.3359 O.2     1  LIG1       -0.2265
     38 O           1.9553    3.6857   -3.1056 O.3     1  LIG1       -0.4456
     39 C           1.9804    2.2692   -3.3426 C.3     1  LIG1        0.1191
     40 C           3.3066    1.7356   -2.8485 C.ar    1  LIG1       -0.0103
     41 C           3.5056    1.3943   -1.5040 C.ar    1  LIG1       -0.0554
     42 C           4.7585    0.9562   -1.0597 C.ar    1  LIG1       -0.0614
     43 C           5.8283    0.8662   -1.9486 C.ar    1  LIG1       -0.0617
     44 C           5.6433    1.2073   -3.2840 C.ar    1  LIG1       -0.0614
     45 C           4.3908    1.6363   -3.7300 C.ar    1  LIG1       -0.0554
     46 C           4.2919    7.6306   -4.3419 C.3     1  LIG1       -0.0196
     47 C           2.9096    8.2445   -4.5612 C.3     1  LIG1       -0.0605
     48 C           4.8809    8.2895   -3.0749 C.3     1  LIG1       -0.0605
     49 H          16.7650    7.2701    2.7131 H       1  LIG1        0.0262
     50 H          15.0121    6.9941    2.8033 H       1  LIG1        0.0262
     51 H          15.6266    8.6392    2.7628 H       1  LIG1        0.0262
     52 H          15.8946    6.6398    0.4349 H       1  LIG1        0.0695
     53 H          16.4679    8.3067    0.4447 H       1  LIG1        0.0695
     54 H          12.1795    9.0274    0.1492 H       1  LIG1        0.0686
     55 H          11.0222    6.1766    0.0980 H       1  LIG1        0.0593
     56 H           8.4451    7.4348    1.2716 H       1  LIG1        0.0293
     57 H           7.7890    8.6524    0.1959 H       1  LIG1        0.0293
     58 H           8.8112   10.2439    3.5503 H       1  LIG1        0.0288
     59 H           7.6954    8.9354    3.1330 H       1  LIG1        0.0288
     60 H           6.9368   11.5291    2.8043 H       1  LIG1        0.0462
     61 H           6.5571   10.3694    1.4960 H       1  LIG1        0.0462
     62 H           8.0786   12.3826    0.7300 H       1  LIG1        0.1487
     63 H           8.8364    5.9473   -0.7829 H       1  LIG1        0.1493
     64 H           8.9563    5.5911   -5.0218 H       1  LIG1        0.0336
     65 H           8.2476    4.0841   -4.5190 H       1  LIG1        0.0336
     66 H          11.1330    6.3448   -4.0266 H       1  LIG1        0.0620
     67 H          13.2811    5.5588   -3.1013 H       1  LIG1        0.0618
     68 H          13.4519    3.3024   -2.0890 H       1  LIG1        0.0618
     69 H          11.4541    1.8348   -1.9735 H       1  LIG1        0.0618
     70 H           9.2926    2.6078   -2.8879 H       1  LIG1        0.0620
     71 H           6.6771    7.1011   -4.1189 H       1  LIG1        0.1495
     72 H           3.1357    5.5567   -2.6644 H       1  LIG1        0.1528
     73 H           1.8136    1.9951   -4.3920 H       1  LIG1        0.0749
     74 H           1.1622    1.8075   -2.7748 H       1  LIG1        0.0749
     75 H           2.6868    1.4657   -0.7925 H       1  LIG1        0.0621
     76 H           4.9019    0.6849   -0.0173 H       1  LIG1        0.0618
     77 H           6.8041    0.5354   -1.6041 H       1  LIG1        0.0618
     78 H           6.4747    1.1685   -3.9837 H       1  LIG1        0.0618
     79 H           4.2820    1.9389   -4.7713 H       1  LIG1        0.0621
     80 H           4.9266    7.9423   -5.1847 H       1  LIG1        0.0318
     81 H           2.2421    8.0096   -3.7241 H       1  LIG1        0.0233
     82 H           2.4526    7.8753   -5.4828 H       1  LIG1        0.0233
     83 H           2.9893    9.3338   -4.6268 H       1  LIG1        0.0233
     84 H           4.1542    8.3644   -2.2654 H       1  LIG1        0.0233
     85 H           5.2126    9.3011   -3.3454 H       1  LIG1        0.0233
     86 H           5.7542    7.8238   -2.6226 H       1  LIG1        0.0233
@<TRIPOS>BOND
     1     1     2    1
     2     2     3    1
     3     3     4    1
     4     4     5    2
     5     4     6    1
     6     6     7    2
     7     8    10    1
     8    11    13    1
     9    13    14    1
    10    14    15    1
    11    15    16   am
    12    11    16    1
    13    16    17    2
    14     8    18    1
    15    18    19   am
    16    19    20    2
    17    21    23    1
    18    23    24    1
    19    24    25   ar
    20    25    26   ar
    21    26    27   ar
    22    27    28   ar
    23    28    29   ar
    24    24    29   ar
    25    21    30    1
    26    30    31   am
    27    31    32    2
    28    31    33    1
    29    33    34    1
    30    33    35    1
    31    35    36   am
    32    36    37    2
    33    36    38    1
    34    38    39    1
    35    39    40    1
    36    40    41   ar
    37    41    42   ar
    38    42    43   ar
    39    43    44   ar
    40    44    45   ar
    41    40    45   ar
    42    33    46    1
    43    46    47    1
    44    46    48    1
    45     8     9    1
    46     8     7    1
    47    11    12    1
    48    11    10    1
    49    21    22    1
    50    21    19    1
    51     1    49    1
    52     1    50    1
    53     1    51    1
    54     2    52    1
    55     2    53    1
    56     6    54    1
    57     7    55    1
    58    10    56    1
    59    10    57    1
    60    13    58    1
    61    13    59    1
    62    14    60    1
    63    14    61    1
    64    15    62    1
    65    18    63    1
    66    23    64    1
    67    23    65    1
    68    25    66    1
    69    26    67    1
    70    27    68    1
    71    28    69    1
    72    29    70    1
    73    30    71    1
    74    35    72    1
    75    39    73    1
    76    39    74    1
    77    41    75    1
    78    42    76    1
    79    43    77    1
    80    44    78    1
    81    45    79    1
    82    46    80    1
    83    47    81    1
    84    47    82    1
    85    47    83    1
    86    48    84    1
    87    48    85    1
    88    48    86    1
@<TRIPOS>MOLECULE
*****
 89 91 0 0 0
SMALL
GASTEIGER

@<TRIPOS>ATOM
      1 C           7.7331   -7.7039    4.0228 C.3     1  LIG1       -0.0306
      2 C           6.5940   -7.4128    4.9570 C.3     1  LIG1        0.0900
      3 O           5.6872   -6.2144    4.5462 O.3     1  LIG1       -0.4618
      4 C           5.6913   -4.9917    4.4946 C.2     1  LIG1        0.3317
      5 O           5.3664   -4.2176    5.5032 O.2     1  LIG1       -0.2456
      6 C           6.1601   -4.3998    3.3344 C.2     1  LIG1        0.0203
      7 C           7.0227   -3.4769    3.4005 C.2     1  LIG1       -0.0572
      8 C           7.5356   -2.7461    2.2608 C.3     1  LIG1        0.0427
      9 H           8.4869   -3.1552    2.0520 H       1  LIG1        0.0543
     10 C           8.0624   -1.3074    2.6753 C.3     1  LIG1       -0.0197
     11 C           7.2558   -0.1260    3.2683 C.3     1  LIG1        0.0389
     12 H           6.5427    0.2581    2.5354 H       1  LIG1        0.0395
     13 C           8.2310    1.0407    3.6394 C.3     1  LIG1       -0.0262
     14 C           8.5080    0.8851    5.1269 C.3     1  LIG1        0.0123
     15 N           7.3220    0.2603    5.6123 N.am    1  LIG1       -0.3151
     16 C           6.5419   -0.2678    4.6056 C.2     1  LIG1        0.2162
     17 O           5.4142   -0.7005    4.7720 O.2     1  LIG1       -0.2755
     18 N           6.6911   -2.9975    1.0111 N.am    1  LIG1       -0.3075
     19 C           6.1155   -3.9664    0.1476 C.2     1  LIG1        0.2341
     20 O           5.4086   -3.3741   -0.7081 O.2     1  LIG1       -0.2738
     21 C           6.1382   -5.7612   -0.0979 C.3     1  LIG1        0.1034
     22 H           5.3508   -5.9081   -0.8596 H       1  LIG1        0.0598
     23 C           5.7450   -6.8386    0.9563 C.3     1  LIG1       -0.0007
     24 C           4.5698   -7.1697    1.8630 C.ar    1  LIG1       -0.0451
     25 C           3.2439   -6.9677    1.9247 C.ar    1  LIG1       -0.0585
     26 C           2.4278   -7.2589    3.1308 C.ar    1  LIG1       -0.0615
     27 C           2.8510   -7.7720    4.3443 C.ar    1  LIG1       -0.0617
     28 C           4.1470   -8.0287    4.2941 C.ar    1  LIG1       -0.0615
     29 C           4.9094   -7.7682    3.0326 C.ar    1  LIG1       -0.0585
     30 N           7.4082   -6.3487   -0.7955 N.am    1  LIG1       -0.3022
     31 C           7.8432   -7.7134   -0.7783 C.2     1  LIG1        0.2341
     32 O           7.2193   -8.6811   -0.3559 O.2     1  LIG1       -0.2738
     33 C           9.3196   -7.9308   -1.1321 C.3     1  LIG1        0.1027
     34 H           9.7320   -6.9614   -1.4113 H       1  LIG1        0.0596
     35 C           9.5993   -8.9255   -2.3393 C.3     1  LIG1       -0.0235
     36 C           9.7347  -10.4645   -2.0658 C.3     1  LIG1       -0.0446
     37 C           8.4422  -11.0856   -1.5550 C.3     1  LIG1       -0.0626
     38 C          10.1682  -11.2570   -3.3185 C.3     1  LIG1       -0.0626
     39 N          10.0806   -8.4082    0.0436 N.am    1  LIG1       -0.2698
     40 C          10.1137   -8.1640    1.3847 C.2     1  LIG1        0.4012
     41 O          10.8429   -8.8430    2.1015 O.2     1  LIG1       -0.2265
     42 O           9.5572   -7.0052    1.7824 O.3     1  LIG1       -0.4456
     43 C          10.3784   -6.2146    2.6916 C.3     1  LIG1        0.1191
     44 C          10.7893   -5.0516    1.8020 C.ar    1  LIG1       -0.0103
     45 C           9.8012   -4.3901    1.0751 C.ar    1  LIG1       -0.0554
     46 C          10.0140   -3.3268    0.1796 C.ar    1  LIG1       -0.0614
     47 C          11.2850   -3.0919   -0.2629 C.ar    1  LIG1       -0.0617
     48 C          12.2943   -3.8832    0.2794 C.ar    1  LIG1       -0.0614
     49 C          12.0738   -4.7755    1.3652 C.ar    1  LIG1       -0.0554
     50 H           8.2565   -8.5612    4.4332 H       1  LIG1        0.0262
     51 H           8.1868   -6.7438    3.9459 H       1  LIG1        0.0262
     52 H           7.5257   -8.0514    2.9858 H       1  LIG1        0.0262
     53 H           6.6886   -7.2117    5.9914 H       1  LIG1        0.0695
     54 H           6.1451   -8.4456    4.8438 H       1  LIG1        0.0695
     55 H           5.8676   -4.8653    2.3196 H       1  LIG1        0.0686
     56 H           7.3268   -3.2164    4.4083 H       1  LIG1        0.0593
     57 H           8.5694   -0.9092    1.7877 H       1  LIG1        0.0293
     58 H           8.8806   -1.5023    3.3974 H       1  LIG1        0.0293
     59 H           7.7233    2.0005    3.4733 H       1  LIG1        0.0288
     60 H           9.1542    1.0584    3.0518 H       1  LIG1        0.0288
     61 H           8.6665    1.8434    5.6346 H       1  LIG1        0.0462
     62 H           9.3507    0.2197    5.3344 H       1  LIG1        0.0462
     63 H           6.9607    0.3352    6.5584 H       1  LIG1        0.1487
     64 H           6.3194   -2.0842    0.7736 H       1  LIG1        0.1493
     65 H           6.7066   -6.8391    1.5021 H       1  LIG1        0.0336
     66 H           5.7358   -7.8221    0.4874 H       1  LIG1        0.0336
     67 H           2.8057   -6.4856    1.0787 H       1  LIG1        0.0620
     68 H           1.3960   -6.9876    3.0922 H       1  LIG1        0.0618
     69 H           2.3629   -7.8702    5.3186 H       1  LIG1        0.0618
     70 H           4.5272   -7.9772    5.3501 H       1  LIG1        0.0618
     71 H           5.9139   -7.3878    3.0319 H       1  LIG1        0.0620
     72 H           7.6923   -5.8530   -1.6300 H       1  LIG1        0.1495
     73 H          10.5727   -8.6268   -2.7566 H       1  LIG1        0.0290
     74 H           8.8711   -8.7639   -3.1457 H       1  LIG1        0.0290
     75 H          10.5186  -10.6308   -1.3161 H       1  LIG1        0.0296
     76 H           8.2205  -10.7425   -0.5453 H       1  LIG1        0.0232
     77 H           8.5197  -12.1768   -1.4930 H       1  LIG1        0.0232
     78 H           7.6086  -10.8424   -2.2213 H       1  LIG1        0.0232
     79 H           9.5772  -10.9799   -4.1967 H       1  LIG1        0.0232
     80 H          10.0400  -12.3387   -3.1665 H       1  LIG1        0.0232
     81 H          11.2277  -11.1017   -3.5480 H       1  LIG1        0.0232
     82 H          11.0468   -8.2735   -0.1944 H       1  LIG1        0.1528
     83 H          11.2131   -6.7673    3.1461 H       1  LIG1        0.0749
     84 H           9.7847   -5.9056    3.5678 H       1  LIG1        0.0749
     85 H           8.7813   -4.7524    1.1694 H       1  LIG1        0.0621
     86 H           9.1715   -2.7708   -0.2272 H       1  LIG1        0.0618
     87 H          11.4504   -2.4016   -1.0883 H       1  LIG1        0.0618
     88 H          13.2579   -3.8806   -0.2195 H       1  LIG1        0.0618
     89 H          12.9136   -5.3535    1.7328 H       1  LIG1        0.0621
@<TRIPOS>BOND
     1     1     2    1
     2     2     3    1
     3     3     4    1
     4     4     5    2
     5     4     6    1
     6     6     7    2
     7     8    10    1
     8    11    13    1
     9    13    14    1
    10    14    15    1
    11    15    16   am
    12    11    16    1
    13    16    17    2
    14     8    18    1
    15    18    19   am
    16    19    20    2
    17    21    23    1
    18    23    24    1
    19    24    25   ar
    20    25    26   ar
    21    26    27   ar
    22    27    28   ar
    23    28    29   ar
    24    24    29   ar
    25    21    30    1
    26    30    31   am
    27    31    32    2
    28    33    35    1
    29    35    36    1
    30    36    37    1
    31    36    38    1
    32    33    39    1
    33    39    40   am
    34    40    41    2
    35    40    42    1
    36    42    43    1
    37    43    44    1
    38    44    45   ar
    39    45    46   ar
    40    46    47   ar
    41    47    48   ar
    42    48    49   ar
    43    44    49   ar
    44    11    12    1
    45    11    10    1
    46     8     9    1
    47     8     7    1
    48    21    22    1
    49    21    19    1
    50    33    34    1
    51    33    31    1
    52     1    50    1
    53     1    51    1
    54     1    52    1
    55     2    53    1
    56     2    54    1
    57     6    55    1
    58     7    56    1
    59    10    57    1
    60    10    58    1
    61    13    59    1
    62    13    60    1
    63    14    61    1
    64    14    62    1
    65    15    63    1
    66    18    64    1
    67    23    65    1
    68    23    66    1
    69    25    67    1
    70    26    68    1
    71    27    69    1
    72    28    70    1
    73    29    71    1
    74    30    72    1
    75    35    73    1
    76    35    74    1
    77    36    75    1
    78    37    76    1
    79    37    77    1
    80    37    78    1
    81    38    79    1
    82    38    80    1
    83    38    81    1
    84    39    82    1
    85    43    83    1
    86    43    84    1
    87    45    85    1
    88    46    86    1
    89    47    87    1
    90    48    88    1
    91    49    89    1
@<TRIPOS>MOLECULE
*****
 84 86 0 0 0
SMALL
GASTEIGER

@<TRIPOS>ATOM
      1 C           1.3156   10.1232    2.1194 C.3     1  LIG1       -0.0306
      2 C           2.2341   10.5497    0.9841 C.3     1  LIG1        0.0900
      3 O           2.4243    9.4262    0.1199 O.3     1  LIG1       -0.4618
      4 C           3.3458    8.5318    0.5434 C.2     1  LIG1        0.3317
      5 O           4.2777    8.7412    1.3096 O.2     1  LIG1       -0.2456
      6 C           2.9301    7.1647    0.1716 C.2     1  LIG1        0.0203
      7 C           1.9310    6.8887   -0.6858 C.2     1  LIG1       -0.0572
      8 C           1.3248    5.5398   -0.9846 C.3     1  LIG1        0.0427
      9 H           0.9989    5.5428   -2.0281 H       1  LIG1        0.0543
     10 C           0.1145    5.2801   -0.0498 C.3     1  LIG1       -0.0197
     11 C          -1.1005    6.1930   -0.3165 C.3     1  LIG1        0.0389
     12 H          -0.8379    7.2547   -0.2671 H       1  LIG1        0.0395
     13 C          -2.2727    5.9147    0.6447 C.3     1  LIG1       -0.0262
     14 C          -3.0959    4.8562   -0.0663 C.3     1  LIG1        0.0123
     15 N          -2.8876    5.1577   -1.4468 N.am    1  LIG1       -0.3151
     16 C          -1.7323    5.8802   -1.6616 C.2     1  LIG1        0.2162
     17 O          -1.2865    6.1750   -2.7507 O.2     1  LIG1       -0.2755
     18 N           2.3458    4.5012   -0.8667 N.am    1  LIG1       -0.3075
     19 C           2.3192    3.3397   -1.6273 C.2     1  LIG1        0.2341
     20 O           1.4439    3.1153   -2.4604 O.2     1  LIG1       -0.2738
     21 C           3.5362    2.3857   -1.4032 C.3     1  LIG1        0.1034
     22 H           3.8738    2.4916   -0.3649 H       1  LIG1        0.0598
     23 C           4.6857    2.7730   -2.3760 C.3     1  LIG1       -0.0007
     24 C           5.2246    4.1904   -2.3173 C.ar    1  LIG1       -0.0450
     25 C           6.2683    4.5287   -1.4413 C.ar    1  LIG1       -0.0558
     26 C           6.7902    5.8268   -1.4252 C.ar    1  LIG1       -0.0262
     27 C           6.2722    6.7898   -2.2825 C.ar    1  LIG1        0.1234
     28 F           6.7818    8.0287   -2.2721 F       1  LIG1       -0.2055
     29 C           5.2398    6.4795   -3.1569 C.ar    1  LIG1       -0.0262
     30 C           4.7180    5.1823   -3.1769 C.ar    1  LIG1       -0.0558
     31 N           3.1729    0.9516   -1.6137 N.am    1  LIG1       -0.3021
     32 C           2.2800    0.2520   -0.8130 C.2     1  LIG1        0.2345
     33 O           1.7463    0.7731    0.1633 O.2     1  LIG1       -0.2737
     34 C           2.0985   -1.2711   -1.1951 C.3     1  LIG1        0.1045
     35 H           2.4296   -1.3619   -2.2382 H       1  LIG1        0.0600
     36 N           3.0164   -2.1279   -0.4032 N.am    1  LIG1       -0.2982
     37 C           4.2357   -2.5758   -0.9106 C.2     1  LIG1        0.2663
     38 O           4.6080   -2.2834   -2.0341 O.2     1  LIG1       -0.2684
     39 C           5.0795   -3.3953   -0.0110 C.ar    1  LIG1        0.1678
     40 C           6.3657   -3.9331   -0.3182 C.ar    1  LIG1        0.0125
     41 C           6.7984   -4.5187    0.8465 C.ar    1  LIG1        0.1350
     42 C           8.0566   -5.1764    1.2666 C.3     1  LIG1       -0.0037
     43 O           5.8132   -4.4085    1.7795 O.2     1  LIG1       -0.3592
     44 N           4.7363   -3.7048    1.2499 N.ar    1  LIG1       -0.0734
     45 C           0.6011   -1.7808   -1.1950 C.3     1  LIG1       -0.0108
     46 C           0.5658   -3.2927   -1.5218 C.3     1  LIG1       -0.0579
     47 C          -0.1607   -1.5718    0.1271 C.3     1  LIG1       -0.0579
     48 C          -0.1933   -1.0588   -2.3109 C.3     1  LIG1       -0.0579
     49 H           1.1279   10.9503    2.8069 H       1  LIG1        0.0262
     50 H           1.7463    9.2879    2.6828 H       1  LIG1        0.0262
     51 H           0.3587    9.7651    1.7219 H       1  LIG1        0.0262
     52 H           3.1863   10.9425    1.3557 H       1  LIG1        0.0695
     53 H           1.7535   11.3367    0.3951 H       1  LIG1        0.0695
     54 H           3.4395    6.4017    0.7465 H       1  LIG1        0.0686
     55 H           1.4409    7.7107   -1.2099 H       1  LIG1        0.0593
     56 H           0.4263    5.4181    0.9963 H       1  LIG1        0.0293
     57 H          -0.1880    4.2297   -0.1374 H       1  LIG1        0.0293
     58 H          -2.8749    6.8281    0.7502 H       1  LIG1        0.0288
     59 H          -1.9646    5.6076    1.6481 H       1  LIG1        0.0288
     60 H          -4.1610    4.9087    0.1742 H       1  LIG1        0.0462
     61 H          -2.7217    3.8465    0.1253 H       1  LIG1        0.0462
     62 H          -3.3549    4.7143   -2.2286 H       1  LIG1        0.1487
     63 H           3.2161    4.7256   -0.4078 H       1  LIG1        0.1493
     64 H           4.3804    2.5636   -3.4112 H       1  LIG1        0.0336
     65 H           5.5330    2.0942   -2.1997 H       1  LIG1        0.0336
     66 H           6.7063    3.7806   -0.7843 H       1  LIG1        0.0621
     67 H           7.6069    6.0920   -0.7602 H       1  LIG1        0.0646
     68 H           4.8546    7.2455   -3.8236 H       1  LIG1        0.0646
     69 H           3.9169    4.9522   -3.8788 H       1  LIG1        0.0621
     70 H           3.8228    0.3771   -2.1398 H       1  LIG1        0.1495
     71 H           2.8163   -2.3226    0.5726 H       1  LIG1        0.1498
     72 H           6.9089   -3.8550   -1.2489 H       1  LIG1        0.0676
     73 H           8.9197   -4.7150    0.7731 H       1  LIG1        0.0309
     74 H           8.0534   -6.2410    1.0123 H       1  LIG1        0.0309
     75 H           8.2117   -5.0847    2.3470 H       1  LIG1        0.0309
     76 H           1.0420   -3.8859   -0.7339 H       1  LIG1        0.0236
     77 H           1.0794   -3.5027   -2.4661 H       1  LIG1        0.0236
     78 H          -0.4645   -3.6579   -1.6194 H       1  LIG1        0.0236
     79 H           0.3351   -2.0659    0.9672 H       1  LIG1        0.0236
     80 H          -1.1769   -1.9846    0.0568 H       1  LIG1        0.0236
     81 H          -0.2874   -0.5131    0.3700 H       1  LIG1        0.0236
     82 H           0.3140   -1.1418   -3.2784 H       1  LIG1        0.0236
     83 H          -0.3298    0.0047   -2.0890 H       1  LIG1        0.0236
     84 H          -1.1930   -1.4960   -2.4336 H       1  LIG1        0.0236
@<TRIPOS>BOND
     1     1     2    1
     2     2     3    1
     3     3     4    1
     4     4     5    2
     5     4     6    1
     6     6     7    2
     7     8    10    1
     8    11    13    1
     9    13    14    1
    10    14    15    1
    11    15    16   am
    12    11    16    1
    13    16    17    2
    14     8    18    1
    15    18    19   am
    16    19    20    2
    17    21    23    1
    18    23    24    1
    19    24    25   ar
    20    25    26   ar
    21    26    27   ar
    22    27    28    1
    23    27    29   ar
    24    29    30   ar
    25    24    30   ar
    26    21    31    1
    27    31    32   am
    28    32    33    2
    29    32    34    1
    30    34    35    1
    31    34    36    1
    32    36    37   am
    33    37    38    2
    34    37    39    1
    35    39    40   ar
    36    40    41   ar
    37    41    42    1
    38    41    43   ar
    39    43    44   ar
    40    39    44   ar
    41    34    45    1
    42    45    46    1
    43    45    47    1
    44    45    48    1
    45    11    12    1
    46    11    10    1
    47     8     9    1
    48     8     7    1
    49    21    22    1
    50    21    19    1
    51     1    49    1
    52     1    50    1
    53     1    51    1
    54     2    52    1
    55     2    53    1
    56     6    54    1
    57     7    55    1
    58    10    56    1
    59    10    57    1
    60    13    58    1
    61    13    59    1
    62    14    60    1
    63    14    61    1
    64    15    62    1
    65    18    63    1
    66    23    64    1
    67    23    65    1
    68    25    66    1
    69    26    67    1
    70    29    68    1
    71    30    69    1
    72    31    70    1
    73    36    71    1
    74    40    72    1
    75    42    73    1
    76    42    74    1
    77    42    75    1
    78    46    76    1
    79    46    77    1
    80    46    78    1
    81    47    79    1
    82    47    80    1
    83    47    81    1
    84    48    82    1
    85    48    83    1
    86    48    84    1
@<TRIPOS>MOLECULE
*****
 85 87 0 0 0
SMALL
GASTEIGER

@<TRIPOS>ATOM
      1 C          -1.2907   -5.3943   -0.2153 C.3     1  LIG1       -0.0306
      2 C          -1.0271   -6.2154    1.0322 C.3     1  LIG1        0.0900
      3 O           0.2905   -5.9689    1.5442 O.3     1  LIG1       -0.4618
      4 C           0.4432   -4.8525    2.3062 C.2     1  LIG1        0.3317
      5 O          -0.3921   -4.0042    2.5559 O.2     1  LIG1       -0.2456
      6 C           1.8438   -4.8446    2.7875 C.2     1  LIG1        0.0203
      7 C           2.4291   -3.7503    3.3136 C.2     1  LIG1       -0.0572
      8 C           3.8642   -3.6789    3.8059 C.3     1  LIG1        0.0427
      9 H           4.4716   -3.3780    2.9455 H       1  LIG1        0.0543
     10 C           4.3787   -5.0111    4.3823 C.3     1  LIG1       -0.0198
     11 C           5.8676   -5.0465    4.7717 C.3     1  LIG1        0.0376
     12 H           6.0696   -4.2766    5.5281 H       1  LIG1        0.0395
     13 C           6.7751   -4.8220    3.5555 C.3     1  LIG1       -0.0404
     14 C           8.2248   -5.0694    3.9384 C.3     1  LIG1       -0.0367
     15 C           8.3548   -6.5294    4.3097 C.3     1  LIG1        0.0116
     16 N           7.4117   -6.9031    5.3403 N.am    1  LIG1       -0.3151
     17 C           6.1609   -6.3732    5.4748 C.2     1  LIG1        0.2162
     18 O           5.3566   -6.9125    6.2355 O.2     1  LIG1       -0.2755
     19 N           3.9438   -2.6211    4.8101 N.am    1  LIG1       -0.3088
     20 C           5.0535   -1.8016    4.9069 C.2     1  LIG1        0.2173
     21 O           6.0268   -1.9116    4.1644 O.2     1  LIG1       -0.2755
     22 C           4.9869   -0.7374    5.9782 C.3     1  LIG1        0.0462
     23 H           3.9282   -0.4855    6.1429 H       1  LIG1        0.0401
     24 C           5.5324   -1.3221    7.3129 C.3     1  LIG1        0.0191
     25 C           7.0119   -1.7356    7.3493 C.2     1  LIG1        0.1544
     26 O           7.8260   -1.2738    6.5487 O.2     1  LIG1       -0.2954
     27 C           7.4989   -2.7170    8.4639 C.3     1  LIG1        0.0841
     28 H           6.7233   -3.4775    8.6043 H       1  LIG1        0.0580
     29 N           8.6662   -3.4381    7.9022 N.am    1  LIG1       -0.3001
     30 C           9.4590   -4.3474    8.5743 C.2     1  LIG1        0.2663
     31 O           9.3333   -4.5972    9.7683 O.2     1  LIG1       -0.2684
     32 C          10.4554   -5.0581    7.7585 C.ar    1  LIG1        0.1678
     33 C          11.1680   -6.2278    8.1398 C.ar    1  LIG1        0.0125
     34 C          11.8826   -6.5860    7.0258 C.ar    1  LIG1        0.1350
     35 C          12.7403   -7.7398    6.6901 C.3     1  LIG1       -0.0037
     36 O          11.6854   -5.6517    6.0567 O.2     1  LIG1       -0.3592
     37 N          10.7818   -4.6974    6.5048 N.ar    1  LIG1       -0.0734
     38 C           7.8076   -2.0163    9.8133 C.3     1  LIG1       -0.0213
     39 C           8.9430   -0.9938    9.7081 C.3     1  LIG1       -0.0606
     40 C           6.5904   -1.3875   10.4904 C.3     1  LIG1       -0.0606
     41 C           5.6972    0.5731    5.5359 C.3     1  LIG1       -0.0162
     42 C           5.1049    1.3830    4.3836 C.ar    1  LIG1       -0.0465
     43 C           5.3352    2.7723    4.3534 C.ar    1  LIG1       -0.0558
     44 C           4.9269    3.5509    3.2639 C.ar    1  LIG1       -0.0262
     45 C           4.2904    2.9479    2.1895 C.ar    1  LIG1        0.1234
     46 F           3.9159    3.6864    1.1366 F       1  LIG1       -0.2055
     47 C           4.0556    1.5831    2.1854 C.ar    1  LIG1       -0.0262
     48 C           4.4658    0.8068    3.2736 C.ar    1  LIG1       -0.0558
     49 H          -2.2972   -5.5881   -0.5972 H       1  LIG1        0.0262
     50 H          -0.5660   -5.6385   -0.9991 H       1  LIG1        0.0262
     51 H          -1.1945   -4.3233   -0.0140 H       1  LIG1        0.0262
     52 H          -1.0758   -7.2809    0.7800 H       1  LIG1        0.0695
     53 H          -1.7804   -6.0328    1.8052 H       1  LIG1        0.0695
     54 H           2.3698   -5.7848    2.6694 H       1  LIG1        0.0686
     55 H           1.8512   -2.8267    3.3439 H       1  LIG1        0.0593
     56 H           4.2296   -5.8193    3.6564 H       1  LIG1        0.0293
     57 H           3.7618   -5.2706    5.2542 H       1  LIG1        0.0293
     58 H           6.6885   -3.8107    3.1603 H       1  LIG1        0.0273
     59 H           6.4857   -5.4901    2.7353 H       1  LIG1        0.0273
     60 H           8.4985   -4.4263    4.7851 H       1  LIG1        0.0280
     61 H           8.8896   -4.8193    3.1068 H       1  LIG1        0.0280
     62 H           9.3592   -6.7616    4.6712 H       1  LIG1        0.0462
     63 H           8.1538   -7.1623    3.4374 H       1  LIG1        0.0462
     64 H           7.5258   -7.7999    5.7968 H       1  LIG1        0.1487
     65 H           3.1664   -2.4985    5.4450 H       1  LIG1        0.1493
     66 H           4.9371   -2.2044    7.5799 H       1  LIG1        0.0350
     67 H           5.3796   -0.5623    8.0812 H       1  LIG1        0.0350
     68 H           8.8540   -3.3254    6.9053 H       1  LIG1        0.1498
     69 H          11.1033   -6.7571    9.0791 H       1  LIG1        0.0676
     70 H          12.8328   -7.8675    5.6068 H       1  LIG1        0.0309
     71 H          12.3096   -8.6626    7.0947 H       1  LIG1        0.0309
     72 H          13.7429   -7.6207    7.1108 H       1  LIG1        0.0309
     73 H           8.1432   -2.7758   10.5260 H       1  LIG1        0.0317
     74 H           8.7821   -0.2822    8.8951 H       1  LIG1        0.0233
     75 H           9.9023   -1.4961    9.5384 H       1  LIG1        0.0233
     76 H           9.0410   -0.4203   10.6357 H       1  LIG1        0.0233
     77 H           6.1951   -0.5376    9.9344 H       1  LIG1        0.0233
     78 H           6.8630   -1.0057   11.4815 H       1  LIG1        0.0233
     79 H           5.7958   -2.1270   10.6327 H       1  LIG1        0.0233
     80 H           6.7371    0.3777    5.2539 H       1  LIG1        0.0321
     81 H           5.7268    1.2328    6.4143 H       1  LIG1        0.0321
     82 H           5.8662    3.2591    5.1690 H       1  LIG1        0.0621
     83 H           5.1224    4.6175    3.2381 H       1  LIG1        0.0646
     84 H           3.5799    1.1197    1.3268 H       1  LIG1        0.0646
     85 H           4.3035   -0.2603    3.1903 H       1  LIG1        0.0621
@<TRIPOS>BOND
     1     1     2    1
     2     2     3    1
     3     3     4    1
     4     4     5    2
     5     4     6    1
     6     6     7    2
     7     8    10    1
     8    11    13    1
     9    13    14    1
    10    14    15    1
    11    15    16    1
    12    16    17   am
    13    11    17    1
    14    17    18    2
    15     8    19    1
    16    19    20   am
    17    20    21    2
    18    20    22    1
    19    22    23    1
    20    22    24    1
    21    24    25    1
    22    25    26    2
    23    25    27    1
    24    27    28    1
    25    27    29    1
    26    29    30   am
    27    30    31    2
    28    30    32    1
    29    32    33   ar
    30    33    34   ar
    31    34    35    1
    32    34    36   ar
    33    36    37   ar
    34    32    37   ar
    35    27    38    1
    36    38    39    1
    37    38    40    1
    38    22    41    1
    39    41    42    1
    40    42    43   ar
    41    43    44   ar
    42    44    45   ar
    43    45    46    1
    44    45    47   ar
    45    47    48   ar
    46    42    48   ar
    47    11    12    1
    48    11    10    1
    49     8     9    1
    50     8     7    1
    51     1    49    1
    52     1    50    1
    53     1    51    1
    54     2    52    1
    55     2    53    1
    56     6    54    1
    57     7    55    1
    58    10    56    1
    59    10    57    1
    60    13    58    1
    61    13    59    1
    62    14    60    1
    63    14    61    1
    64    15    62    1
    65    15    63    1
    66    16    64    1
    67    19    65    1
    68    24    66    1
    69    24    67    1
    70    29    68    1
    71    33    69    1
    72    35    70    1
    73    35    71    1
    74    35    72    1
    75    38    73    1
    76    39    74    1
    77    39    75    1
    78    39    76    1
    79    40    77    1
    80    40    78    1
    81    40    79    1
    82    41    80    1
    83    41    81    1
    84    43    82    1
    85    44    83    1
    86    47    84    1
    87    48    85    1
@<TRIPOS>MOLECULE
*****
 89 91 0 0 0
SMALL
GASTEIGER

@<TRIPOS>ATOM
      1 C           7.4043    6.7276  -14.0470 C.3     1  LIG1       -0.0306
      2 C           7.0339    7.7538  -12.9965 C.3     1  LIG1        0.0900
      3 O           7.3859    7.3483  -11.6744 O.3     1  LIG1       -0.4618
      4 C           8.6885    7.4996  -11.3445 C.2     1  LIG1        0.3317
      5 O           9.6312    7.6373  -12.1025 O.2     1  LIG1       -0.2456
      6 C           8.8510    7.5047   -9.8791 C.2     1  LIG1        0.0203
      7 C           7.8260    7.6863   -9.0297 C.2     1  LIG1       -0.0572
      8 C           7.8673    7.5738   -7.5308 C.3     1  LIG1        0.0427
      9 H           7.1110    6.8287   -7.2624 H       1  LIG1        0.0543
     10 C           7.4724    8.9213   -6.8787 C.3     1  LIG1       -0.0197
     11 C           7.3907    8.9307   -5.3439 C.3     1  LIG1        0.0389
     12 H           7.1582    9.9424   -4.9937 H       1  LIG1        0.0395
     13 C           6.3692    7.9465   -4.7536 C.3     1  LIG1       -0.0262
     14 C           7.1722    6.7648   -4.2602 C.3     1  LIG1        0.0123
     15 N           8.4989    7.2794   -4.1324 N.am    1  LIG1       -0.3151
     16 C           8.6971    8.5094   -4.7137 C.2     1  LIG1        0.2162
     17 O           9.7543    9.0995   -4.7944 O.2     1  LIG1       -0.2755
     18 N           9.1851    7.0905   -7.1305 N.am    1  LIG1       -0.3075
     19 C           9.3877    5.8523   -6.5355 C.2     1  LIG1        0.2341
     20 O           8.4839    5.0234   -6.4176 O.2     1  LIG1       -0.2738
     21 C          10.8343    5.5664   -6.0276 C.3     1  LIG1        0.1034
     22 H          11.1633    6.4579   -5.4809 H       1  LIG1        0.0598
     23 C          11.7873    5.3518   -7.2293 C.3     1  LIG1       -0.0007
     24 C          11.5872    4.1381   -8.1259 C.ar    1  LIG1       -0.0451
     25 C          12.4423    3.9499   -9.2260 C.ar    1  LIG1       -0.0585
     26 C          12.3293    2.8142  -10.0379 C.ar    1  LIG1       -0.0615
     27 C          11.3590    1.8526   -9.7690 C.ar    1  LIG1       -0.0617
     28 C          10.4955    2.0310   -8.6978 C.ar    1  LIG1       -0.0615
     29 C          10.6092    3.1620   -7.8912 C.ar    1  LIG1       -0.0585
     30 N          10.9278    4.4390   -5.0658 N.am    1  LIG1       -0.3022
     31 C          10.6983    4.5490   -3.7105 C.2     1  LIG1        0.2341
     32 O          10.3355    5.6143   -3.2141 O.2     1  LIG1       -0.2738
     33 C          10.7472    3.2311   -2.8618 C.3     1  LIG1        0.1027
     34 H          11.0123    3.5362   -1.8416 H       1  LIG1        0.0596
     35 C          11.8134    2.2288   -3.3785 C.3     1  LIG1       -0.0235
     36 C          12.0603    0.9226   -2.5803 C.3     1  LIG1       -0.0446
     37 C          10.9070   -0.0805   -2.5916 C.3     1  LIG1       -0.0626
     38 C          13.2524    0.1446   -3.1580 C.3     1  LIG1       -0.0626
     39 N           9.4040    2.6667   -2.8471 N.am    1  LIG1       -0.2698
     40 C           8.8392    2.0630   -1.7672 C.2     1  LIG1        0.4012
     41 O           9.3344    1.9589   -0.6841 O.2     1  LIG1       -0.2265
     42 O           7.6733    1.4821   -2.1810 O.3     1  LIG1       -0.4456
     43 C           6.8545    0.9042   -1.1515 C.3     1  LIG1        0.1191
     44 C           5.5016    1.5835   -1.1631 C.ar    1  LIG1       -0.0103
     45 C           4.5466    1.2609   -0.1882 C.ar    1  LIG1       -0.0554
     46 C           3.2935    1.8808   -0.1909 C.ar    1  LIG1       -0.0614
     47 C           2.9864    2.8388   -1.1553 C.ar    1  LIG1       -0.0617
     48 C           3.9266    3.1731   -2.1239 C.ar    1  LIG1       -0.0614
     49 C           5.1680    2.5396   -2.1359 C.ar    1  LIG1       -0.0554
     50 H           7.0539    7.0593  -15.0283 H       1  LIG1        0.0262
     51 H           6.9663    5.7503  -13.8224 H       1  LIG1        0.0262
     52 H           8.4876    6.5897  -14.1011 H       1  LIG1        0.0262
     53 H           5.9487    7.9016  -12.9929 H       1  LIG1        0.0695
     54 H           7.4902    8.7256  -13.2108 H       1  LIG1        0.0695
     55 H           9.8692    7.3499   -9.5471 H       1  LIG1        0.0686
     56 H           6.8309    7.8802   -9.4330 H       1  LIG1        0.0593
     57 H           6.4837    9.2248   -7.2573 H       1  LIG1        0.0293
     58 H           8.1667    9.7088   -7.2043 H       1  LIG1        0.0293
     59 H           5.5913    7.6508   -5.4646 H       1  LIG1        0.0288
     60 H           5.8723    8.4060   -3.8935 H       1  LIG1        0.0288
     61 H           7.1111    5.9383   -4.9659 H       1  LIG1        0.0462
     62 H           6.8549    6.3829   -3.2896 H       1  LIG1        0.0462
     63 H           9.2802    6.7539   -3.7330 H       1  LIG1        0.1487
     64 H           9.9579    7.7427   -7.2002 H       1  LIG1        0.1493
     65 H          12.8038    5.2711   -6.8203 H       1  LIG1        0.0336
     66 H          11.7670    6.2487   -7.8614 H       1  LIG1        0.0336
     67 H          13.2141    4.6808   -9.4626 H       1  LIG1        0.0620
     68 H          13.0022    2.6742  -10.8805 H       1  LIG1        0.0618
     69 H          11.2708    0.9673  -10.3922 H       1  LIG1        0.0618
     70 H           9.7271    1.2943   -8.4788 H       1  LIG1        0.0618
     71 H           9.9016    3.2408   -7.0734 H       1  LIG1        0.0620
     72 H          11.3832    3.6070   -5.4104 H       1  LIG1        0.1495
     73 H          12.7637    2.7829   -3.4209 H       1  LIG1        0.0290
     74 H          11.5782    1.9433   -4.4086 H       1  LIG1        0.0290
     75 H          12.2998    1.1952   -1.5458 H       1  LIG1        0.0296
     76 H          10.5884   -0.3344   -3.6071 H       1  LIG1        0.0232
     77 H          10.0391    0.2627   -2.0644 H       1  LIG1        0.0232
     78 H          11.1745   -0.9940   -2.0520 H       1  LIG1        0.0232
     79 H          13.0285   -0.2296   -4.1651 H       1  LIG1        0.0232
     80 H          13.4608   -0.7294   -2.5284 H       1  LIG1        0.0232
     81 H          14.1609    0.7485   -3.2048 H       1  LIG1        0.0232
     82 H           8.8462    2.6989   -3.6951 H       1  LIG1        0.1528
     83 H           7.3025    0.9925   -0.1574 H       1  LIG1        0.0749
     84 H           6.7234   -0.1633   -1.3773 H       1  LIG1        0.0749
     85 H           4.7710    0.5278    0.5837 H       1  LIG1        0.0621
     86 H           2.5555    1.6196    0.5630 H       1  LIG1        0.0618
     87 H           2.0149    3.3251   -1.1534 H       1  LIG1        0.0618
     88 H           3.6991    3.9256   -2.8732 H       1  LIG1        0.0618
     89 H           5.8762    2.8077   -2.9167 H       1  LIG1        0.0621
@<TRIPOS>BOND
     1     1     2    1
     2     2     3    1
     3     3     4    1
     4     4     5    2
     5     4     6    1
     6     6     7    2
     7     8    10    1
     8    10    11    1
     9    11    12    1
    10    11    13    1
    11    13    14    1
    12    14    15    1
    13    15    16   am
    14    11    16    1
    15    16    17    2
    16     8    18    1
    17    18    19   am
    18    19    20    2
    19    21    23    1
    20    23    24    1
    21    24    25   ar
    22    25    26   ar
    23    26    27   ar
    24    27    28   ar
    25    28    29   ar
    26    24    29   ar
    27    21    30    1
    28    30    31   am
    29    31    32    2
    30    33    35    1
    31    35    36    1
    32    36    37    1
    33    36    38    1
    34    33    39    1
    35    39    40   am
    36    40    41    2
    37    40    42    1
    38    42    43    1
    39    43    44    1
    40    44    45   ar
    41    45    46   ar
    42    46    47   ar
    43    47    48   ar
    44    48    49   ar
    45    44    49   ar
    46     8     9    1
    47     8     7    1
    48    33    34    1
    49    33    31    1
    50    21    22    1
    51    21    19    1
    52     1    50    1
    53     1    51    1
    54     1    52    1
    55     2    53    1
    56     2    54    1
    57     6    55    1
    58     7    56    1
    59    10    57    1
    60    10    58    1
    61    13    59    1
    62    13    60    1
    63    14    61    1
    64    14    62    1
    65    15    63    1
    66    18    64    1
    67    23    65    1
    68    23    66    1
    69    25    67    1
    70    26    68    1
    71    27    69    1
    72    28    70    1
    73    29    71    1
    74    30    72    1
    75    35    73    1
    76    35    74    1
    77    36    75    1
    78    37    76    1
    79    37    77    1
    80    37    78    1
    81    38    79    1
    82    38    80    1
    83    38    81    1
    84    39    82    1
    85    43    83    1
    86    43    84    1
    87    45    85    1
    88    46    86    1
    89    47    87    1
    90    48    88    1
    91    49    89    1
@<TRIPOS>MOLECULE
*****
 82 84 0 0 0
SMALL
GASTEIGER

@<TRIPOS>ATOM
      1 C          11.3749   -0.6535   -8.1697 C.3     1  LIG1       -0.0306
      2 C          10.9268   -1.2126   -6.8327 C.3     1  LIG1        0.0900
      3 O           9.5057   -1.0750   -6.6957 O.3     1  LIG1       -0.4618
      4 C           8.7874   -2.0606   -7.2943 C.2     1  LIG1        0.3317
      5 O           9.2378   -3.0026   -7.9367 O.2     1  LIG1       -0.2456
      6 C           7.3560   -1.8517   -7.0285 C.2     1  LIG1        0.0203
      7 C           6.5339   -2.9109   -7.0959 C.2     1  LIG1       -0.0572
      8 C           5.0508   -2.8730   -6.8450 C.3     1  LIG1        0.0427
      9 H           4.7795   -2.0350   -6.1932 H       1  LIG1        0.0543
     10 C           4.5637   -4.2135   -6.2298 C.3     1  LIG1       -0.0197
     11 C           5.2025   -4.5876   -4.8837 C.3     1  LIG1        0.0389
     12 H           6.2964   -4.6041   -4.9362 H       1  LIG1        0.0395
     13 C           4.7178   -5.9507   -4.3379 C.3     1  LIG1       -0.0262
     14 C           3.5268   -5.6153   -3.4622 C.3     1  LIG1        0.0123
     15 N           3.8135   -4.2985   -3.0007 N.am    1  LIG1       -0.3151
     16 C           4.7605   -3.6383   -3.7785 C.2     1  LIG1        0.2162
     17 O           5.1233   -2.5230   -3.6232 O.2     1  LIG1       -0.2755
     18 N           4.4404   -2.6837   -8.1632 N.am    1  LIG1       -0.3088
     19 C           3.5068   -1.6982   -8.4193 C.2     1  LIG1        0.2173
     20 O           3.2249   -0.8388   -7.5752 O.2     1  LIG1       -0.2755
     21 C           2.9005   -1.7116   -9.8318 C.3     1  LIG1        0.0462
     22 H           2.6861   -2.7676  -10.0776 H       1  LIG1        0.0401
     23 C           1.5339   -0.9472   -9.8933 C.3     1  LIG1        0.0191
     24 C           1.5917    0.5891   -9.8139 C.2     1  LIG1        0.1544
     25 O           2.5396    1.1718   -9.2826 O.2     1  LIG1       -0.2954
     26 C           0.4039    1.4154  -10.3862 C.3     1  LIG1        0.0841
     27 H          -0.4854    0.7729  -10.3822 H       1  LIG1        0.0580
     28 N           0.1485    2.5466   -9.4888 N.am    1  LIG1       -0.3001
     29 C          -0.7481    2.5637   -8.4605 C.2     1  LIG1        0.2663
     30 O          -1.4542    1.5902   -8.1687 O.2     1  LIG1       -0.2684
     31 C          -0.8414    3.8505   -7.7575 C.ar    1  LIG1        0.1678
     32 C          -1.6875    4.1846   -6.6670 C.ar    1  LIG1        0.0125
     33 C          -1.4163    5.5077   -6.4075 C.ar    1  LIG1        0.1350
     34 C          -1.9231    6.4826   -5.4224 C.3     1  LIG1       -0.0037
     35 O          -0.4713    5.9460   -7.2804 O.2     1  LIG1       -0.3592
     36 N          -0.1100    4.9124   -8.1306 N.ar    1  LIG1       -0.0734
     37 C           0.6488    1.9606  -11.8268 C.3     1  LIG1       -0.0213
     38 C          -0.5784    2.7525  -12.3149 C.3     1  LIG1       -0.0606
     39 C           1.8407    2.9206  -11.9690 C.3     1  LIG1       -0.0606
     40 C           4.0328   -1.2140  -10.7435 C.3     1  LIG1       -0.0162
     41 C           3.8399   -1.0877  -12.2250 C.ar    1  LIG1       -0.0465
     42 C           4.9007   -0.5296  -12.9621 C.ar    1  LIG1       -0.0558
     43 C           4.7977   -0.3735  -14.3401 C.ar    1  LIG1       -0.0262
     44 C           3.6365   -0.7801  -14.9819 C.ar    1  LIG1        0.1234
     45 F           3.5298   -0.6368  -16.3078 F       1  LIG1       -0.2055
     46 C           2.5911   -1.3592  -14.2761 C.ar    1  LIG1       -0.0262
     47 C           2.7050   -1.5355  -12.9017 C.ar    1  LIG1       -0.0558
     48 H          12.4543   -0.7664   -8.2996 H       1  LIG1        0.0262
     49 H          11.1146    0.4069   -8.2477 H       1  LIG1        0.0262
     50 H          10.8694   -1.1632   -8.9960 H       1  LIG1        0.0262
     51 H          11.3955   -0.6538   -6.0139 H       1  LIG1        0.0695
     52 H          11.2310   -2.2596   -6.7147 H       1  LIG1        0.0695
     53 H           7.0183   -0.8500   -6.8016 H       1  LIG1        0.0686
     54 H           6.9530   -3.8898   -7.3262 H       1  LIG1        0.0593
     55 H           4.7801   -5.0218   -6.9426 H       1  LIG1        0.0293
     56 H           3.4704   -4.1847   -6.1353 H       1  LIG1        0.0293
     57 H           5.5074   -6.3876   -3.7102 H       1  LIG1        0.0288
     58 H           4.4790   -6.6847   -5.1141 H       1  LIG1        0.0288
     59 H           3.4243   -6.2912   -2.6058 H       1  LIG1        0.0462
     60 H           2.5901   -5.5928   -4.0249 H       1  LIG1        0.0462
     61 H           3.3356   -3.8011   -2.2614 H       1  LIG1        0.1487
     62 H           5.0318   -2.9365   -8.9445 H       1  LIG1        0.1493
     63 H           0.8944   -1.3082   -9.0768 H       1  LIG1        0.0350
     64 H           0.9845   -1.2048  -10.8055 H       1  LIG1        0.0350
     65 H           0.7609    3.3523   -9.5408 H       1  LIG1        0.1498
     66 H          -2.3925    3.5476   -6.1596 H       1  LIG1        0.0676
     67 H          -1.6809    6.1587   -4.4053 H       1  LIG1        0.0309
     68 H          -3.0110    6.5771   -5.4998 H       1  LIG1        0.0309
     69 H          -1.4879    7.4758   -5.5732 H       1  LIG1        0.0309
     70 H           0.8213    1.1138  -12.5040 H       1  LIG1        0.0317
     71 H          -0.8623    3.5271  -11.5924 H       1  LIG1        0.0233
     72 H          -1.4400    2.1007  -12.4735 H       1  LIG1        0.0233
     73 H          -0.3621    3.2745  -13.2541 H       1  LIG1        0.0233
     74 H           1.6771    3.8398  -11.3959 H       1  LIG1        0.0233
     75 H           1.9530    3.2317  -13.0165 H       1  LIG1        0.0233
     76 H           2.7844    2.4686  -11.6596 H       1  LIG1        0.0233
     77 H           4.8841   -1.9020  -10.6417 H       1  LIG1        0.0321
     78 H           4.3830   -0.2501  -10.3574 H       1  LIG1        0.0321
     79 H           5.8199   -0.2275  -12.4591 H       1  LIG1        0.0621
     80 H           5.6144    0.0552  -14.9104 H       1  LIG1        0.0646
     81 H           1.6982   -1.6884  -14.7958 H       1  LIG1        0.0646
     82 H           1.8984   -2.0436  -12.3891 H       1  LIG1        0.0621
@<TRIPOS>BOND
     1     1     2    1
     2     2     3    1
     3     3     4    1
     4     4     5    2
     5     4     6    1
     6     6     7    2
     7     8    10    1
     8    11    13    1
     9    13    14    1
    10    14    15    1
    11    15    16   am
    12    11    16    1
    13    16    17    2
    14     8    18    1
    15    18    19   am
    16    19    20    2
    17    19    21    1
    18    21    22    1
    19    21    23    1
    20    23    24    1
    21    24    25    2
    22    24    26    1
    23    26    27    1
    24    26    28    1
    25    28    29   am
    26    29    30    2
    27    29    31    1
    28    31    32   ar
    29    32    33   ar
    30    33    34    1
    31    33    35   ar
    32    35    36   ar
    33    31    36   ar
    34    26    37    1
    35    37    38    1
    36    37    39    1
    37    21    40    1
    38    40    41    1
    39    41    42   ar
    40    42    43   ar
    41    43    44   ar
    42    44    45    1
    43    44    46   ar
    44    46    47   ar
    45    41    47   ar
    46    11    12    1
    47    11    10    1
    48     8     9    1
    49     8     7    1
    50     1    48    1
    51     1    49    1
    52     1    50    1
    53     2    51    1
    54     2    52    1
    55     6    53    1
    56     7    54    1
    57    10    55    1
    58    10    56    1
    59    13    57    1
    60    13    58    1
    61    14    59    1
    62    14    60    1
    63    15    61    1
    64    18    62    1
    65    23    63    1
    66    23    64    1
    67    28    65    1
    68    32    66    1
    69    34    67    1
    70    34    68    1
    71    34    69    1
    72    37    70    1
    73    38    71    1
    74    38    72    1
    75    38    73    1
    76    39    74    1
    77    39    75    1
    78    39    76    1
    79    40    77    1
    80    40    78    1
    81    42    79    1
    82    43    80    1
    83    46    81    1
    84    47    82    1
@<TRIPOS>MOLECULE
*****
 92 94 0 0 0
SMALL
GASTEIGER

@<TRIPOS>ATOM
      1 C          10.7433   13.9594   -5.1193 C.3     1  LIG1       -0.0306
      2 C          11.2425   12.5340   -5.2842 C.3     1  LIG1        0.0900
      3 O          10.1380   11.6486   -5.0941 O.3     1  LIG1       -0.4618
      4 C           9.7925   11.3855   -3.8078 C.2     1  LIG1        0.3317
      5 O          10.5351   11.5044   -2.8250 O.2     1  LIG1       -0.2456
      6 C           8.3946   10.9407   -3.7359 C.2     1  LIG1        0.0203
      7 C           7.5874   10.9330   -4.8180 C.2     1  LIG1       -0.0572
      8 C           6.1611   10.4386   -4.9530 C.3     1  LIG1        0.0427
      9 H           5.5622   11.3551   -4.8660 H       1  LIG1        0.0543
     10 C           5.4692    9.5361   -3.7582 C.3     1  LIG1       -0.0198
     11 C           5.8117    8.0745   -3.6367 C.3     1  LIG1        0.0376
     12 H           6.8492    8.2607   -3.4313 H       1  LIG1        0.0395
     13 C           5.5159    7.5043   -4.9477 C.3     1  LIG1       -0.0404
     14 C           6.0780    6.1858   -5.1987 C.3     1  LIG1       -0.0367
     15 C           5.3866    5.2548   -4.3512 C.3     1  LIG1        0.0116
     16 N           5.4548    5.7447   -2.9973 N.am    1  LIG1       -0.3151
     17 C           5.4711    7.0280   -2.6817 C.2     1  LIG1        0.2162
     18 O           5.2736    7.4244   -1.3664 O.2     1  LIG1       -0.2755
     19 N           5.9893   10.0861   -6.4499 N.am    1  LIG1       -0.3075
     20 C           6.4423    9.1038   -7.3368 C.2     1  LIG1        0.2341
     21 O           5.6507    9.0043   -8.3939 O.2     1  LIG1       -0.2738
     22 C           7.3663    7.7077   -6.8835 C.3     1  LIG1        0.1034
     23 H           6.3900    7.2382   -7.0080 H       1  LIG1        0.0598
     24 C           8.2988    7.9329   -5.2984 C.3     1  LIG1       -0.0007
     25 C           8.6573    6.9492   -3.8592 C.ar    1  LIG1       -0.0451
     26 C           8.3623    7.1773   -2.4171 C.ar    1  LIG1       -0.0585
     27 C           8.3566    6.1592   -1.3978 C.ar    1  LIG1       -0.0615
     28 C           8.7863    4.9017   -1.7204 C.ar    1  LIG1       -0.0617
     29 C           9.1500    4.6730   -3.0509 C.ar    1  LIG1       -0.0615
     30 C           9.0970    5.6518   -4.0808 C.ar    1  LIG1       -0.0585
     31 N           7.9653    6.5538   -7.6540 N.am    1  LIG1       -0.3022
     32 C           8.1439    5.1509   -7.4712 C.2     1  LIG1        0.2341
     33 O           9.1689    4.7230   -8.0173 O.2     1  LIG1       -0.2738
     34 C           7.2197    4.0240   -6.5638 C.3     1  LIG1        0.1027
     35 H           7.2626    4.5458   -5.6557 H       1  LIG1        0.0596
     36 C           7.7787    2.8061   -5.6623 C.3     1  LIG1       -0.0235
     37 C           7.0625    2.1751   -4.2809 C.3     1  LIG1       -0.0446
     38 C           6.8633    2.8769   -2.9101 C.3     1  LIG1       -0.0626
     39 C           5.6836    1.6396   -4.4936 C.3     1  LIG1       -0.0626
     40 N           5.8289    3.8990   -7.0686 N.am    1  LIG1       -0.2698
     41 C           5.0068    2.9098   -7.1639 C.2     1  LIG1        0.4012
     42 O           5.4244    1.7022   -7.2791 O.2     1  LIG1       -0.2265
     43 O           3.7051    3.1796   -7.0635 O.3     1  LIG1       -0.4456
     44 C           2.8252    2.0832   -6.6889 C.3     1  LIG1        0.1191
     45 C           2.1258    2.4685   -5.3914 C.ar    1  LIG1       -0.0103
     46 C           0.9706    3.2439   -5.3661 C.ar    1  LIG1       -0.0554
     47 C           0.3711    3.5771   -4.1428 C.ar    1  LIG1       -0.0614
     48 C           0.9479    3.2008   -2.9273 C.ar    1  LIG1       -0.0617
     49 C           2.1101    2.4550   -2.9325 C.ar    1  LIG1       -0.0614
     50 C           2.6326    2.0482   -4.1569 C.ar    1  LIG1       -0.0554
     51 H          10.0428   14.2125   -5.9238 H       1  LIG1        0.0262
     52 H          11.5746   14.6663   -5.1404 H       1  LIG1        0.0262
     53 H          10.1910   14.0850   -4.1814 H       1  LIG1        0.0262
     54 H          12.0643   12.3021   -4.5998 H       1  LIG1        0.0695
     55 H          11.6031   12.3831   -6.3066 H       1  LIG1        0.0695
     56 H           8.0770   10.6348   -2.7469 H       1  LIG1        0.0686
     57 H           8.0185   11.2659   -5.7653 H       1  LIG1        0.0593
     58 H           4.3926    9.4990   -3.8964 H       1  LIG1        0.0293
     59 H           5.7443    9.9680   -2.7914 H       1  LIG1        0.0293
     60 H           6.0147    8.2171   -5.5070 H       1  LIG1        0.0273
     61 H           4.5200    7.5641   -5.3473 H       1  LIG1        0.0273
     62 H           7.1537    6.1434   -5.1797 H       1  LIG1        0.0280
     63 H           5.8620    5.8951   -6.1986 H       1  LIG1        0.0280
     64 H           5.7999    4.2761   -4.4724 H       1  LIG1        0.0462
     65 H           4.3810    5.1871   -4.7448 H       1  LIG1        0.0462
     66 H           5.6986    5.0996   -2.2690 H       1  LIG1        0.1487
     67 H           5.4142   10.7669   -6.9435 H       1  LIG1        0.1493
     68 H           7.7255    8.7054   -4.8618 H       1  LIG1        0.0336
     69 H           9.1811    8.5507   -5.5290 H       1  LIG1        0.0336
     70 H           7.9284    8.0824   -1.9719 H       1  LIG1        0.0620
     71 H           7.9112    6.3157   -0.4034 H       1  LIG1        0.0618
     72 H           8.7262    4.0817   -0.9996 H       1  LIG1        0.0618
     73 H           9.3150    3.6370   -3.3409 H       1  LIG1        0.0618
     74 H           9.2564    5.3125   -5.0915 H       1  LIG1        0.0620
     75 H           8.6882    6.9589   -8.2328 H       1  LIG1        0.1495
     76 H           8.7765    3.1150   -5.3327 H       1  LIG1        0.0290
     77 H           7.9440    1.9780   -6.3491 H       1  LIG1        0.0290
     78 H           7.6993    1.3240   -4.0250 H       1  LIG1        0.0296
     79 H           6.8472    3.9323   -3.0413 H       1  LIG1        0.0232
     80 H           7.6550    2.6581   -2.1976 H       1  LIG1        0.0232
     81 H           5.9307    2.6393   -2.3532 H       1  LIG1        0.0232
     82 H           5.0232    2.4743   -4.7431 H       1  LIG1        0.0232
     83 H           5.2936    1.1973   -3.5703 H       1  LIG1        0.0232
     84 H           5.6562    0.8428   -5.2233 H       1  LIG1        0.0232
     85 H           5.2846    4.7530   -7.3477 H       1  LIG1        0.1528
     86 H           3.3122    1.1236   -6.5945 H       1  LIG1        0.0749
     87 H           2.0549    1.9743   -7.4782 H       1  LIG1        0.0749
     88 H           0.5114    3.5603   -6.2975 H       1  LIG1        0.0621
     89 H          -0.5611    4.1323   -4.1385 H       1  LIG1        0.0618
     90 H           0.4780    3.4574   -1.9823 H       1  LIG1        0.0618
     91 H           2.5908    2.1493   -2.0058 H       1  LIG1        0.0618
     92 H           3.4420    1.3431   -4.1326 H       1  LIG1        0.0621
@<TRIPOS>BOND
     1     1     2    1
     2     2     3    1
     3     3     4    1
     4     4     5    2
     5     4     6    1
     6     6     7    2
     7     8    10    1
     8    11    13    1
     9    13    14    1
    10    14    15    1
    11    15    16    1
    12    16    17   am
    13    11    17    1
    14    17    18    2
    15     8    19    1
    16    19    20   am
    17    20    21    2
    18    22    24    1
    19    24    25    1
    20    25    26   ar
    21    26    27   ar
    22    27    28   ar
    23    28    29   ar
    24    29    30   ar
    25    25    30   ar
    26    22    31    1
    27    31    32   am
    28    32    33    2
    29    34    36    1
    30    36    37    1
    31    37    38    1
    32    37    39    1
    33    34    40    1
    34    40    41   am
    35    41    42    2
    36    41    43    1
    37    43    44    1
    38    44    45    1
    39    45    46   ar
    40    46    47   ar
    41    47    48   ar
    42    48    49   ar
    43    49    50   ar
    44    45    50   ar
    45    22    23    1
    46    22    20    1
    47    11    12    1
    48    11    10    1
    49     8     9    1
    50     8     7    1
    51    34    35    1
    52    34    32    1
    53     1    51    1
    54     1    52    1
    55     1    53    1
    56     2    54    1
    57     2    55    1
    58     6    56    1
    59     7    57    1
    60    10    58    1
    61    10    59    1
    62    13    60    1
    63    13    61    1
    64    14    62    1
    65    14    63    1
    66    15    64    1
    67    15    65    1
    68    16    66    1
    69    19    67    1
    70    24    68    1
    71    24    69    1
    72    26    70    1
    73    27    71    1
    74    28    72    1
    75    29    73    1
    76    30    74    1
    77    31    75    1
    78    36    76    1
    79    36    77    1
    80    37    78    1
    81    38    79    1
    82    38    80    1
    83    38    81    1
    84    39    82    1
    85    39    83    1
    86    39    84    1
    87    40    85    1
    88    44    86    1
    89    44    87    1
    90    46    88    1
    91    47    89    1
    92    48    90    1
    93    49    91    1
    94    50    92    1
@<TRIPOS>MOLECULE
*****
 90 92 0 0 0
SMALL
GASTEIGER

@<TRIPOS>ATOM
      1 C          -1.9196    1.9796    9.6053 C.3     1  LIG1       -0.0306
      2 C          -0.7562    2.1591    8.6585 C.3     1  LIG1        0.0900
      3 O          -1.1857    2.3521    7.3048 O.3     1  LIG1       -0.4618
      4 C          -1.4708    1.2159    6.6772 C.2     1  LIG1        0.3317
      5 O          -2.3199    0.3492    7.0552 O.2     1  LIG1       -0.2456
      6 C          -0.5689    0.9526    5.5647 C.2     1  LIG1        0.0203
      7 C           0.3782    1.8033    5.0978 C.2     1  LIG1       -0.0572
      8 C           1.2809    1.5777    3.9081 C.3     1  LIG1        0.0427
      9 H           1.3456    2.5138    3.3446 H       1  LIG1        0.0543
     10 C           0.7373    0.4723    2.9572 C.3     1  LIG1       -0.0198
     11 C          -0.6860    0.6676    2.3344 C.3     1  LIG1        0.0376
     12 H          -1.4610    0.6941    3.1127 H       1  LIG1        0.0395
     13 C          -1.0252   -0.5675    1.4654 C.3     1  LIG1       -0.0404
     14 C          -1.5224   -0.2661    0.0587 C.3     1  LIG1       -0.0367
     15 C          -0.7217    0.8661   -0.5517 C.3     1  LIG1        0.0116
     16 N          -0.7817    2.0380    0.2773 N.am    1  LIG1       -0.3151
     17 C          -0.8195    2.0146    1.6359 C.2     1  LIG1        0.2162
     18 O          -0.9275    3.0658    2.2620 O.2     1  LIG1       -0.2755
     19 N           2.6551    1.2604    4.4179 N.am    1  LIG1       -0.3075
     20 C           3.8059    1.9930    4.0777 C.2     1  LIG1        0.2343
     21 O           3.7143    2.9998    3.3743 O.2     1  LIG1       -0.2737
     22 C           5.2149    1.5163    4.6790 C.3     1  LIG1        0.1058
     23 H           5.0071    0.4637    4.9246 H       1  LIG1        0.0600
     24 C           5.4551    2.1553    6.0980 C.3     1  LIG1       -0.0005
     25 C           5.8615    3.6087    6.3014 C.ar    1  LIG1       -0.0450
     26 C           6.6399    3.9149    7.4382 C.ar    1  LIG1       -0.0558
     27 C           7.1694    5.1930    7.6399 C.ar    1  LIG1       -0.0262
     28 C           6.8662    6.2015    6.7409 C.ar    1  LIG1        0.1234
     29 F           7.4117    7.4155    6.8945 F       1  LIG1       -0.2055
     30 C           5.9878    5.9653    5.6932 C.ar    1  LIG1       -0.0262
     31 C           5.4719    4.6770    5.4863 C.ar    1  LIG1       -0.0558
     32 N           6.4870    1.4156    3.8032 N.am    1  LIG1       -0.2911
     33 C           6.6957    2.3662    2.7111 C.3     1  LIG1        0.0040
     34 C           7.3422    0.3144    4.0165 C.2     1  LIG1        0.2363
     35 O           7.0926   -0.4758    4.9442 O.2     1  LIG1       -0.2736
     36 C           8.7166    0.0729    3.2507 C.3     1  LIG1        0.1001
     37 H           8.8455   -1.0263    3.2903 H       1  LIG1        0.0595
     38 C           9.9487    0.6246    4.1079 C.3     1  LIG1       -0.0236
     39 C          10.3252    2.1409    4.0857 C.3     1  LIG1       -0.0446
     40 C           9.3316    3.0835    4.7448 C.3     1  LIG1       -0.0626
     41 C          11.6293    2.4118    4.8522 C.3     1  LIG1       -0.0626
     42 N           8.9804    0.3850    1.8315 N.am    1  LIG1       -0.2987
     43 C           8.3338    0.3671    0.6171 C.2     1  LIG1        0.2663
     44 O           9.0331    0.7949   -0.3121 O.2     1  LIG1       -0.2684
     45 C           6.8890    0.1856    0.3949 C.ar    1  LIG1        0.1678
     46 C           6.1681    1.0180   -0.5170 C.ar    1  LIG1        0.0125
     47 C           4.8474    0.8005   -0.2388 C.ar    1  LIG1        0.1350
     48 C           3.6204    1.5427   -0.6060 C.3     1  LIG1       -0.0037
     49 O           4.7558   -0.2411    0.6374 O.2     1  LIG1       -0.3592
     50 N           6.0424   -0.6158    1.0622 N.ar    1  LIG1       -0.0734
     51 H          -2.6253    2.8088    9.5072 H       1  LIG1        0.0262
     52 H          -1.5622    1.9235   10.6364 H       1  LIG1        0.0262
     53 H          -2.4715    1.0600    9.3910 H       1  LIG1        0.0262
     54 H          -0.0677    1.3043    8.7029 H       1  LIG1        0.0695
     55 H          -0.1788    3.0462    8.9336 H       1  LIG1        0.0695
     56 H          -0.7142   -0.0361    5.1436 H       1  LIG1        0.0686
     57 H           0.4382    2.8027    5.5284 H       1  LIG1        0.0593
     58 H           0.7248   -0.4821    3.5038 H       1  LIG1        0.0293
     59 H           1.4557    0.3373    2.1420 H       1  LIG1        0.0293
     60 H          -1.7691   -1.1888    1.9831 H       1  LIG1        0.0273
     61 H          -0.1382   -1.2063    1.3762 H       1  LIG1        0.0273
     62 H          -2.5878   -0.0074    0.0880 H       1  LIG1        0.0280
     63 H          -1.4283   -1.1655   -0.5615 H       1  LIG1        0.0280
     64 H          -1.1242    1.1329   -1.5337 H       1  LIG1        0.0462
     65 H           0.3315    0.5942   -0.6690 H       1  LIG1        0.0462
     66 H          -0.8038    2.9628   -0.1374 H       1  LIG1        0.1487
     67 H           2.7508    0.4383    5.0009 H       1  LIG1        0.1493
     68 H           6.2382    1.5522    6.5849 H       1  LIG1        0.0336
     69 H           4.5532    2.0042    6.7074 H       1  LIG1        0.0336
     70 H           6.8510    3.1419    8.1750 H       1  LIG1        0.0621
     71 H           7.8214    5.3997    8.4824 H       1  LIG1        0.0646
     72 H           5.7120    6.7834    5.0343 H       1  LIG1        0.0646
     73 H           4.7608    4.5531    4.6785 H       1  LIG1        0.0621
     74 H           7.2265    1.8938    1.9136 H       1  LIG1        0.0429
     75 H           7.3467    3.2028    2.9153 H       1  LIG1        0.0429
     76 H           5.7807    2.7769    2.3071 H       1  LIG1        0.0429
     77 H          10.8455    0.1031    3.7286 H       1  LIG1        0.0290
     78 H           9.8490    0.2976    5.1502 H       1  LIG1        0.0290
     79 H          10.4880    2.4421    3.0423 H       1  LIG1        0.0296
     80 H           9.7244    4.1048    4.8200 H       1  LIG1        0.0232
     81 H           9.0017    2.7448    5.7281 H       1  LIG1        0.0232
     82 H           8.4585    3.1901    4.1553 H       1  LIG1        0.0232
     83 H          11.4705    2.2900    5.9309 H       1  LIG1        0.0232
     84 H          11.9474    3.4515    4.6913 H       1  LIG1        0.0232
     85 H          12.4451    1.7606    4.5369 H       1  LIG1        0.0232
     86 H           9.9688    0.4667    1.6234 H       1  LIG1        0.1498
     87 H           6.5808    1.8009   -1.1373 H       1  LIG1        0.0676
     88 H           3.8890    2.5345   -0.9943 H       1  LIG1        0.0309
     89 H           2.9869    1.7082    0.2710 H       1  LIG1        0.0309
     90 H           3.0355    1.0351   -1.3775 H       1  LIG1        0.0309
@<TRIPOS>BOND
     1     1     2    1
     2     2     3    1
     3     3     4    1
     4     4     5    2
     5     4     6    1
     6     6     7    2
     7     8    10    1
     8    11    13    1
     9    13    14    1
    10    14    15    1
    11    15    16    1
    12    16    17   am
    13    11    17    1
    14    17    18    2
    15     8    19    1
    16    19    20   am
    17    20    21    2
    18    22    24    1
    19    24    25    1
    20    25    26   ar
    21    26    27   ar
    22    27    28   ar
    23    28    29    1
    24    28    30   ar
    25    30    31   ar
    26    25    31   ar
    27    22    32    1
    28    32    33    1
    29    32    34   am
    30    34    35    2
    31    36    38    1
    32    38    39    1
    33    39    40    1
    34    39    41    1
    35    36    42    1
    36    42    43   am
    37    43    44    2
    38    43    45    1
    39    45    46   ar
    40    46    47   ar
    41    47    48    1
    42    47    49   ar
    43    49    50   ar
    44    45    50   ar
    45    11    12    1
    46    11    10    1
    47     8     9    1
    48     8     7    1
    49    22    23    1
    50    22    20    1
    51    36    37    1
    52    36    34    1
    53     1    51    1
    54     1    52    1
    55     1    53    1
    56     2    54    1
    57     2    55    1
    58     6    56    1
    59     7    57    1
    60    10    58    1
    61    10    59    1
    62    13    60    1
    63    13    61    1
    64    14    62    1
    65    14    63    1
    66    15    64    1
    67    15    65    1
    68    16    66    1
    69    19    67    1
    70    24    68    1
    71    24    69    1
    72    26    70    1
    73    27    71    1
    74    30    72    1
    75    31    73    1
    76    33    74    1
    77    33    75    1
    78    33    76    1
    79    38    77    1
    80    38    78    1
    81    39    79    1
    82    40    80    1
    83    40    81    1
    84    40    82    1
    85    41    83    1
    86    41    84    1
    87    41    85    1
    88    42    86    1
    89    46    87    1
    90    48    88    1
    91    48    89    1
    92    48    90    1
@<TRIPOS>MOLECULE
*****
 80 82 0 0 0
SMALL
GASTEIGER

@<TRIPOS>ATOM
      1 C          18.9139   -2.5670    9.8247 C.3     1  LIG1       -0.0306
      2 C          18.3066   -1.8366   11.0117 C.3     1  LIG1        0.0900
      3 O          17.4193   -0.8568   10.4728 O.3     1  LIG1       -0.4618
      4 C          17.9778    0.3544   10.1760 C.2     1  LIG1        0.3317
      5 O          18.8329    0.9241   10.7868 O.2     1  LIG1       -0.2456
      6 C          17.3571    0.8553    8.9115 C.2     1  LIG1        0.0203
      7 C          16.5204    0.1171    8.1627 C.2     1  LIG1       -0.0572
      8 C          15.5948    0.7015    7.1319 C.3     1  LIG1        0.0428
      9 H          15.7345    1.7849    7.0634 H       1  LIG1        0.0543
     10 C          14.1107    0.4105    7.5241 C.3     1  LIG1       -0.0197
     11 C          13.6736    0.8880    8.9283 C.3     1  LIG1        0.0389
     12 H          14.2942    0.4628    9.7220 H       1  LIG1        0.0395
     13 C          12.1906    0.5744    9.2360 C.3     1  LIG1       -0.0262
     14 C          11.4310    1.7598    8.6634 C.3     1  LIG1        0.0123
     15 N          12.3511    2.8366    8.8302 N.am    1  LIG1       -0.3151
     16 C          13.6485    2.3968    9.0448 C.2     1  LIG1        0.2162
     17 O          14.5981    3.1098    9.2789 O.2     1  LIG1       -0.2755
     18 N          15.9591    0.1365    5.8295 N.am    1  LIG1       -0.3060
     19 C          15.4229    0.6055    4.6429 C.2     1  LIG1        0.2547
     20 O          14.6030    1.5229    4.6199 O.2     1  LIG1       -0.2717
     21 C          15.8753   -0.1176    3.3450 C.3     1  LIG1        0.1822
     22 H          16.6859    0.5101    2.9455 H       1  LIG1        0.0836
     23 C          14.7045   -0.1889    2.3180 C.3     1  LIG1        0.0183
     24 C          13.5163   -1.0774    2.6860 C.ar    1  LIG1       -0.0432
     25 C          12.8034   -1.7590    1.6857 C.ar    1  LIG1       -0.0557
     26 C          11.6843   -2.5394    2.0122 C.ar    1  LIG1       -0.0262
     27 C          11.3012   -2.6860    3.3396 C.ar    1  LIG1        0.1234
     28 F          10.2474   -3.4478    3.6576 F       1  LIG1       -0.2055
     29 C          11.9755   -2.0180    4.3403 C.ar    1  LIG1       -0.0262
     30 C          13.0349   -1.1825    4.0007 C.ar    1  LIG1       -0.0557
     31 O          16.3641   -1.4461    3.5920 O.3     1  LIG1       -0.4503
     32 C          17.0081   -2.0435    2.5488 C.2     1  LIG1        0.3286
     33 O          17.4912   -1.4329    1.6063 O.2     1  LIG1       -0.2487
     34 C          17.0474   -3.5813    2.6797 C.3     1  LIG1        0.1230
     35 H          16.5477   -3.9277    1.7631 H       1  LIG1        0.0617
     36 N          18.4435   -4.0055    2.6276 N.am    1  LIG1       -0.2968
     37 C          18.8962   -5.0790    1.8862 C.2     1  LIG1        0.2664
     38 O          18.1593   -5.7787    1.1988 O.2     1  LIG1       -0.2684
     39 C          20.3338   -5.3308    2.0139 C.ar    1  LIG1        0.1678
     40 C          21.1071   -6.3538    1.3990 C.ar    1  LIG1        0.0125
     41 C          22.3926   -6.1158    1.8221 C.ar    1  LIG1        0.1350
     42 C          23.7098   -6.7308    1.5728 C.3     1  LIG1       -0.0037
     43 O          22.3927   -5.0488    2.6631 O.2     1  LIG1       -0.3592
     44 N          21.1096   -4.5566    2.7936 N.ar    1  LIG1       -0.0734
     45 C          16.2551   -4.1998    3.8674 C.3     1  LIG1       -0.0178
     46 C          16.1176   -5.7240    3.7295 C.3     1  LIG1       -0.0605
     47 C          16.8432   -3.8940    5.2481 C.3     1  LIG1       -0.0605
     48 H          19.3667   -3.5127   10.1275 H       1  LIG1        0.0262
     49 H          19.6798   -1.9465    9.3468 H       1  LIG1        0.0262
     50 H          18.1528   -2.7654    9.0600 H       1  LIG1        0.0262
     51 H          19.0706   -1.4121   11.6708 H       1  LIG1        0.0695
     52 H          17.6962   -2.5319   11.5973 H       1  LIG1        0.0695
     53 H          17.5786    1.8934    8.6939 H       1  LIG1        0.0686
     54 H          16.3580   -0.9344    8.4020 H       1  LIG1        0.0593
     55 H          13.9274   -0.6723    7.4576 H       1  LIG1        0.0293
     56 H          13.4585    0.8700    6.7744 H       1  LIG1        0.0293
     57 H          12.0521    0.5654   10.3277 H       1  LIG1        0.0288
     58 H          11.8363   -0.3846    8.8520 H       1  LIG1        0.0288
     59 H          10.5041    1.9730    9.2012 H       1  LIG1        0.0462
     60 H          11.2195    1.6389    7.5966 H       1  LIG1        0.0462
     61 H          12.1194    3.8200    8.8712 H       1  LIG1        0.1487
     62 H          16.6752   -0.5774    5.7715 H       1  LIG1        0.1494
     63 H          15.1118   -0.5679    1.3692 H       1  LIG1        0.0354
     64 H          14.3294    0.8179    2.1062 H       1  LIG1        0.0354
     65 H          13.0900   -1.6702    0.6390 H       1  LIG1        0.0621
     66 H          11.0971   -3.0234    1.2386 H       1  LIG1        0.0646
     67 H          11.6641   -2.1088    5.3751 H       1  LIG1        0.0646
     68 H          13.4317   -0.5912    4.8108 H       1  LIG1        0.0621
     69 H          19.1612   -3.4393    3.0707 H       1  LIG1        0.1499
     70 H          20.7625   -7.1314    0.7323 H       1  LIG1        0.0676
     71 H          23.6731   -7.4517    0.7507 H       1  LIG1        0.0309
     72 H          24.0646   -7.2475    2.4699 H       1  LIG1        0.0309
     73 H          24.4442   -5.9605    1.3138 H       1  LIG1        0.0309
     74 H          15.2359   -3.7885    3.8497 H       1  LIG1        0.0319
     75 H          17.0847   -6.2075    3.5695 H       1  LIG1        0.0233
     76 H          15.4577   -5.9840    2.8958 H       1  LIG1        0.0233
     77 H          15.6925   -6.1677    4.6368 H       1  LIG1        0.0233
     78 H          17.8860   -4.2129    5.3216 H       1  LIG1        0.0233
     79 H          16.2758   -4.4171    6.0270 H       1  LIG1        0.0233
     80 H          16.7896   -2.8321    5.4927 H       1  LIG1        0.0233
@<TRIPOS>BOND
     1     1     2    1
     2     2     3    1
     3     3     4    1
     4     4     5    2
     5     4     6    1
     6     6     7    2
     7     8    10    1
     8    11    13    1
     9    13    14    1
    10    14    15    1
    11    15    16   am
    12    11    16    1
    13    16    17    2
    14     8    18    1
    15    18    19   am
    16    19    20    2
    17    21    23    1
    18    23    24    1
    19    24    25   ar
    20    25    26   ar
    21    26    27   ar
    22    27    28    1
    23    27    29   ar
    24    29    30   ar
    25    24    30   ar
    26    21    31    1
    27    31    32    1
    28    32    33    2
    29    32    34    1
    30    34    35    1
    31    34    36    1
    32    36    37   am
    33    37    38    2
    34    37    39    1
    35    39    40   ar
    36    40    41   ar
    37    41    42    1
    38    41    43   ar
    39    43    44   ar
    40    39    44   ar
    41    34    45    1
    42    45    46    1
    43    45    47    1
    44    21    22    1
    45    21    19    1
    46    11    12    1
    47    11    10    1
    48     8     9    1
    49     8     7    1
    50     1    48    1
    51     1    49    1
    52     1    50    1
    53     2    51    1
    54     2    52    1
    55     6    53    1
    56     7    54    1
    57    10    55    1
    58    10    56    1
    59    13    57    1
    60    13    58    1
    61    14    59    1
    62    14    60    1
    63    15    61    1
    64    18    62    1
    65    23    63    1
    66    23    64    1
    67    25    65    1
    68    26    66    1
    69    29    67    1
    70    30    68    1
    71    36    69    1
    72    40    70    1
    73    42    71    1
    74    42    72    1
    75    42    73    1
    76    45    74    1
    77    46    75    1
    78    46    76    1
    79    46    77    1
    80    47    78    1
    81    47    79    1
    82    47    80    1
@<TRIPOS>MOLECULE
*****
 75 78 0 0 0
SMALL
GASTEIGER

@<TRIPOS>ATOM
      1 C          -0.0345   -2.8687   -8.3622 C.3     1  LIG1       -0.0629
      2 C          -0.2545   -2.8233   -6.8518 C.3     1  LIG1       -0.0263
      3 C          -1.4679   -3.6480   -6.3407 C.3     1  LIG1        0.1129
      4 H          -1.2663   -4.7065   -6.5535 H       1  LIG1        0.0625
      5 C          -1.5359   -3.4956   -4.7714 C.2     1  LIG1        0.2364
      6 O          -2.1652   -2.6009   -4.2071 O.2     1  LIG1       -0.2735
      7 N          -0.7870   -4.3607   -3.9935 N.am    1  LIG1       -0.3073
      8 C          -0.7826   -4.1806   -2.5332 C.3     1  LIG1        0.0427
      9 H          -1.7309   -3.7125   -2.2439 H       1  LIG1        0.0543
     10 C           0.3582   -3.2610   -2.2105 C.2     1  LIG1       -0.0572
     11 C           0.3514   -2.3600   -1.2108 C.2     1  LIG1        0.0203
     12 C           1.5103   -1.4896   -0.9398 C.2     1  LIG1        0.3320
     13 O           1.6953   -0.9577    0.1462 O.2     1  LIG1       -0.2456
     14 O           2.2801   -1.3743   -2.0437 O.3     1  LIG1       -0.4568
     15 C           3.4234   -0.5310   -1.9259 C.3     1  LIG1        0.1178
     16 C           4.6552   -1.3336   -2.2551 C.ar    1  LIG1       -0.0103
     17 C           5.1412   -1.3968   -3.5684 C.ar    1  LIG1       -0.0554
     18 C           6.2980   -2.1221   -3.8604 C.ar    1  LIG1       -0.0614
     19 C           6.9707   -2.8023   -2.8467 C.ar    1  LIG1       -0.0617
     20 C           6.4833   -2.7646   -1.5414 C.ar    1  LIG1       -0.0614
     21 C           5.3276   -2.0390   -1.2472 C.ar    1  LIG1       -0.0554
     22 C          -0.6720   -5.5326   -1.8101 C.3     1  LIG1       -0.0197
     23 C          -0.6571   -5.4293   -0.2744 C.3     1  LIG1        0.0389
     24 H           0.1506   -4.7881    0.0958 H       1  LIG1        0.0395
     25 C          -0.5421   -6.8065    0.3923 C.3     1  LIG1       -0.0262
     26 C          -1.9804   -7.2817    0.4890 C.3     1  LIG1        0.0123
     27 N          -2.7070   -6.0611    0.6697 N.am    1  LIG1       -0.3151
     28 C          -1.9972   -4.9449    0.2678 C.2     1  LIG1        0.2162
     29 O          -2.3982   -3.8101    0.3027 O.2     1  LIG1       -0.2755
     30 N          -2.7201   -3.2653   -7.0789 N.ar    1  LIG1       -0.3018
     31 C          -3.5122   -2.2265   -6.6138 C.ar    1  LIG1        0.0089
     32 C          -4.5896   -1.8009   -7.2672 C.ar    1  LIG1       -0.0435
     33 C          -4.8416   -2.2613   -8.5927 C.ar    1  LIG1       -0.0338
     34 C          -4.1341   -3.2535   -9.1492 C.ar    1  LIG1        0.0991
     35 N          -4.2801   -3.6608  -10.4688 N.am    1  LIG1       -0.2758
     36 C          -5.1825   -3.1558  -11.4063 C.2     1  LIG1        0.2700
     37 O          -6.0097   -2.2791  -11.1927 O.2     1  LIG1       -0.2681
     38 C          -5.0842   -3.7440  -12.7470 C.ar    1  LIG1        0.1681
     39 C          -5.8757   -3.4022  -13.8817 C.ar    1  LIG1        0.0125
     40 C          -5.3251   -4.1191  -14.9132 C.ar    1  LIG1        0.1350
     41 C          -5.5548   -4.1603  -16.3704 C.3     1  LIG1       -0.0037
     42 O          -4.3313   -4.9075  -14.4236 O.2     1  LIG1       -0.3592
     43 N          -4.1763   -4.6780  -13.0659 N.ar    1  LIG1       -0.0734
     44 C          -3.0626   -3.9289   -8.2795 C.ar    1  LIG1        0.2733
     45 O          -2.5117   -4.9546   -8.6813 O.2     1  LIG1       -0.2656
     46 H           0.8394   -2.2693   -8.6394 H       1  LIG1        0.0231
     47 H          -0.8862   -2.4514   -8.9079 H       1  LIG1        0.0231
     48 H           0.1361   -3.8925   -8.7088 H       1  LIG1        0.0231
     49 H          -0.3736   -1.7734   -6.5556 H       1  LIG1        0.0287
     50 H           0.6622   -3.1753   -6.3612 H       1  LIG1        0.0287
     51 H          -0.0567   -4.9134   -4.4232 H       1  LIG1        0.1493
     52 H           1.2344   -3.3343   -2.8474 H       1  LIG1        0.0593
     53 H          -0.4741   -2.2583   -0.5116 H       1  LIG1        0.0686
     54 H           3.5269   -0.0724   -0.9370 H       1  LIG1        0.0749
     55 H           3.3043    0.2883   -2.6433 H       1  LIG1        0.0749
     56 H           4.6265   -0.8724   -4.3704 H       1  LIG1        0.0621
     57 H           6.6774   -2.1525   -4.8785 H       1  LIG1        0.0618
     58 H           7.8742   -3.3620   -3.0739 H       1  LIG1        0.0618
     59 H           7.0062   -3.2945   -0.7494 H       1  LIG1        0.0618
     60 H           4.9584   -2.0162   -0.2234 H       1  LIG1        0.0621
     61 H           0.2352   -6.0544   -2.1401 H       1  LIG1        0.0293
     62 H          -1.5185   -6.1538   -2.1319 H       1  LIG1        0.0293
     63 H          -0.1336   -6.6799    1.4044 H       1  LIG1        0.0288
     64 H           0.1073   -7.5023   -0.1444 H       1  LIG1        0.0288
     65 H          -2.1520   -7.9517    1.3323 H       1  LIG1        0.0462
     66 H          -2.3189   -7.7531   -0.4387 H       1  LIG1        0.0462
     67 H          -3.6588   -5.9759    1.0070 H       1  LIG1        0.1487
     68 H          -3.2846   -1.7411   -5.6779 H       1  LIG1        0.0810
     69 H          -5.2299   -1.0340   -6.8479 H       1  LIG1        0.0633
     70 H          -5.5818   -1.6826   -9.1283 H       1  LIG1        0.0638
     71 H          -3.6428   -4.3887  -10.7876 H       1  LIG1        0.1553
     72 H          -6.6854   -2.6872  -13.9366 H       1  LIG1        0.0676
     73 H          -5.3069   -3.1892  -16.8125 H       1  LIG1        0.0309
     74 H          -6.6012   -4.3818  -16.6001 H       1  LIG1        0.0309
     75 H          -4.9290   -4.9166  -16.8536 H       1  LIG1        0.0309
@<TRIPOS>BOND
     1     1     2    1
     2     2     3    1
     3     3     4    1
     4     3     5    1
     5     5     6    2
     6     5     7   am
     7     8    10    1
     8    10    11    2
     9    11    12    1
    10    12    13    2
    11    12    14    1
    12    14    15    1
    13    15    16    1
    14    16    17   ar
    15    17    18   ar
    16    18    19   ar
    17    19    20   ar
    18    20    21   ar
    19    16    21   ar
    20     8    22    1
    21    23    25    1
    22    25    26    1
    23    26    27    1
    24    27    28   am
    25    23    28    1
    26    28    29    2
    27     3    30    1
    28    30    31   ar
    29    31    32   ar
    30    32    33   ar
    31    33    34   ar
    32    34    35    1
    33    35    36   am
    34    36    37    2
    35    36    38    1
    36    38    39   ar
    37    39    40   ar
    38    40    41    1
    39    40    42   ar
    40    42    43   ar
    41    38    43   ar
    42    34    44   ar
    43    30    44   ar
    44    44    45    2
    45     8     9    1
    46     8     7    1
    47    23    24    1
    48    23    22    1
    49     1    46    1
    50     1    47    1
    51     1    48    1
    52     2    49    1
    53     2    50    1
    54     7    51    1
    55    10    52    1
    56    11    53    1
    57    15    54    1
    58    15    55    1
    59    17    56    1
    60    18    57    1
    61    19    58    1
    62    20    59    1
    63    21    60    1
    64    22    61    1
    65    22    62    1
    66    25    63    1
    67    25    64    1
    68    26    65    1
    69    26    66    1
    70    27    67    1
    71    31    68    1
    72    32    69    1
    73    33    70    1
    74    35    71    1
    75    39    72    1
    76    41    73    1
    77    41    74    1
    78    41    75    1
@<TRIPOS>MOLECULE
*****
 68 70 0 0 0
SMALL
GASTEIGER

@<TRIPOS>ATOM
      1 C           7.6984    1.1410    4.0495 C.3     1  LIG1       -0.0306
      2 C           8.9253    1.2469    4.9411 C.3     1  LIG1        0.0900
      3 O           9.6824    2.4280    4.6028 O.3     1  LIG1       -0.4618
      4 C          10.5228    2.3021    3.5416 C.2     1  LIG1        0.3317
      5 O          10.7272    1.2908    2.9025 O.2     1  LIG1       -0.2456
      6 C          11.0805    3.6402    3.1834 C.2     1  LIG1        0.0203
      7 C          12.2267    3.7010    2.4763 C.2     1  LIG1       -0.0572
      8 C          12.7125    4.8773    1.6373 C.3     1  LIG1        0.0427
      9 H          12.2888    5.8208    2.0013 H       1  LIG1        0.0543
     10 C          12.2742    4.5781    0.1846 C.3     1  LIG1       -0.0197
     11 C          12.7524    5.4919   -0.9678 C.3     1  LIG1        0.0389
     12 H          13.8432    5.4813   -1.0753 H       1  LIG1        0.0395
     13 C          12.2212    6.9330   -0.9809 C.3     1  LIG1       -0.0262
     14 C          10.8099    6.7619   -1.4989 C.3     1  LIG1        0.0123
     15 N          10.9819    5.7481   -2.4927 N.am    1  LIG1       -0.3151
     16 C          12.0961    4.9825   -2.2356 C.2     1  LIG1        0.2162
     17 O          12.4433    3.9945   -2.9002 O.2     1  LIG1       -0.2755
     18 N          14.1626    4.9184    1.7053 N.am    1  LIG1       -0.3073
     19 C          14.9015    5.6712    2.5962 C.2     1  LIG1        0.2364
     20 O          14.3774    6.3803    3.4499 O.2     1  LIG1       -0.2735
     21 C          16.4439    5.4532    2.4605 C.3     1  LIG1        0.1129
     22 H          16.6124    4.3987    2.7134 H       1  LIG1        0.0625
     23 C          17.3062    6.2946    3.4332 C.3     1  LIG1       -0.0263
     24 C          17.0056    6.1042    4.9168 C.3     1  LIG1       -0.0629
     25 N          16.8497    5.6595    1.0245 N.ar    1  LIG1       -0.3018
     26 C          16.8141    6.9490    0.5135 C.ar    1  LIG1        0.0089
     27 C          17.0786    7.1976   -0.7697 C.ar    1  LIG1       -0.0435
     28 C          17.3706    6.1235   -1.6777 C.ar    1  LIG1       -0.0338
     29 C          17.5055    4.8505   -1.2708 C.ar    1  LIG1        0.0991
     30 N          17.8536    3.7843   -2.1048 N.am    1  LIG1       -0.2758
     31 C          18.1077    3.8182   -3.4780 C.2     1  LIG1        0.2700
     32 O          18.1275    4.8527   -4.1566 O.2     1  LIG1       -0.2681
     33 C          18.3947    2.5290   -4.1286 C.ar    1  LIG1        0.1681
     34 C          19.1761    2.2903   -5.3027 C.ar    1  LIG1        0.0125
     35 C          19.1112    0.9314   -5.5022 C.ar    1  LIG1        0.1350
     36 C          19.7150   -0.0304   -6.4514 C.3     1  LIG1       -0.0037
     37 O          18.3080    0.3910   -4.5457 O.2     1  LIG1       -0.3592
     38 N          17.8827    1.3744   -3.6697 N.ar    1  LIG1       -0.0734
     39 C          17.1984    4.5639    0.2073 C.ar    1  LIG1        0.2733
     40 O          17.2150    3.4009    0.6123 O.2     1  LIG1       -0.2656
     41 H           6.9900    0.3993    4.4317 H       1  LIG1        0.0262
     42 H           7.9820    0.8472    3.0338 H       1  LIG1        0.0262
     43 H           7.1936    2.1092    3.9743 H       1  LIG1        0.0262
     44 H           9.5396    0.3391    4.8895 H       1  LIG1        0.0695
     45 H           8.6056    1.3573    5.9834 H       1  LIG1        0.0695
     46 H          10.4312    4.4892    3.3552 H       1  LIG1        0.0686
     47 H          12.8000    2.7796    2.3657 H       1  LIG1        0.0593
     48 H          11.1786    4.4998    0.1621 H       1  LIG1        0.0293
     49 H          12.6310    3.5675   -0.0690 H       1  LIG1        0.0293
     50 H          12.7947    7.5082   -1.7251 H       1  LIG1        0.0288
     51 H          12.2927    7.4622   -0.0279 H       1  LIG1        0.0288
     52 H          10.3870    7.6760   -1.9470 H       1  LIG1        0.0462
     53 H          10.1280    6.3854   -0.7359 H       1  LIG1        0.0462
     54 H          10.3402    5.5245   -3.2486 H       1  LIG1        0.1487
     55 H          14.6805    4.3012    1.0906 H       1  LIG1        0.1493
     56 H          17.2192    7.3645    3.2176 H       1  LIG1        0.0287
     57 H          18.3597    6.0322    3.2683 H       1  LIG1        0.0287
     58 H          16.0390    6.5325    5.1956 H       1  LIG1        0.0231
     59 H          17.7597    6.6279    5.5160 H       1  LIG1        0.0231
     60 H          17.0166    5.0493    5.2031 H       1  LIG1        0.0231
     61 H          16.5708    7.7648    1.1889 H       1  LIG1        0.0810
     62 H          17.0905    8.2116   -1.1570 H       1  LIG1        0.0633
     63 H          17.4883    6.4233   -2.7117 H       1  LIG1        0.0638
     64 H          17.9502    2.8769   -1.6440 H       1  LIG1        0.1553
     65 H          19.7263    3.0147   -5.8887 H       1  LIG1        0.0676
     66 H          20.0235    0.4419   -7.3896 H       1  LIG1        0.0309
     67 H          19.0102   -0.8325   -6.6964 H       1  LIG1        0.0309
     68 H          20.5986   -0.4950   -5.9998 H       1  LIG1        0.0309
@<TRIPOS>BOND
     1     1     2    1
     2     2     3    1
     3     3     4    1
     4     4     5    2
     5     4     6    1
     6     6     7    2
     7     8    10    1
     8    11    13    1
     9    13    14    1
    10    14    15    1
    11    15    16   am
    12    11    16    1
    13    16    17    2
    14     8    18    1
    15    18    19   am
    16    19    20    2
    17    21    23    1
    18    23    24    1
    19    21    25    1
    20    25    26   ar
    21    26    27   ar
    22    27    28   ar
    23    28    29   ar
    24    29    30    1
    25    30    31   am
    26    31    32    2
    27    31    33    1
    28    33    34   ar
    29    34    35   ar
    30    35    36    1
    31    35    37   ar
    32    37    38   ar
    33    33    38   ar
    34    29    39   ar
    35    25    39   ar
    36    39    40    2
    37    21    22    1
    38    21    19    1
    39    11    12    1
    40    11    10    1
    41     8     9    1
    42     8     7    1
    43     1    41    1
    44     1    42    1
    45     1    43    1
    46     2    44    1
    47     2    45    1
    48     6    46    1
    49     7    47    1
    50    10    48    1
    51    10    49    1
    52    13    50    1
    53    13    51    1
    54    14    52    1
    55    14    53    1
    56    15    54    1
    57    18    55    1
    58    23    56    1
    59    23    57    1
    60    24    58    1
    61    24    59    1
    62    24    60    1
    63    26    61    1
    64    27    62    1
    65    28    63    1
    66    30    64    1
    67    34    65    1
    68    36    66    1
    69    36    67    1
    70    36    68    1
@<TRIPOS>MOLECULE
*****
 67 69 0 0 0
SMALL
GASTEIGER

@<TRIPOS>ATOM
      1 C          -6.2612   11.9006    2.2838 C.1     1  LIG1       -0.1191
      2 C          -6.0009   10.9970    1.5635 C.1     1  LIG1       -0.1030
      3 C          -5.6008    9.9086    0.6347 C.3     1  LIG1        0.0383
      4 C          -4.0746    9.8409    0.3976 C.3     1  LIG1        0.1239
      5 H          -3.5943    9.5832    1.3499 H       1  LIG1        0.0634
      6 C          -3.7450    8.6780   -0.5748 C.2     1  LIG1        0.2374
      7 O          -4.5563    8.2667   -1.4031 O.2     1  LIG1       -0.2735
      8 N          -2.4502    8.1916   -0.5087 N.am    1  LIG1       -0.3073
      9 C          -1.9578    7.1618   -1.4069 C.3     1  LIG1        0.0427
     10 H          -2.8025    6.5678   -1.7779 H       1  LIG1        0.0543
     11 C          -1.0977    6.2325   -0.6005 C.2     1  LIG1       -0.0572
     12 C           0.2430    6.2812   -0.4836 C.2     1  LIG1        0.0203
     13 C           1.0073    5.2472    0.2344 C.2     1  LIG1        0.3317
     14 O           2.2076    5.0873    0.0929 O.2     1  LIG1       -0.2456
     15 O           0.1697    4.5515    1.0330 O.3     1  LIG1       -0.4618
     16 C           0.7341    3.4658    1.7632 C.3     1  LIG1        0.0900
     17 C           0.8743    2.2581    0.8590 C.3     1  LIG1       -0.0306
     18 C          -1.1694    7.7243   -2.5944 C.3     1  LIG1       -0.0197
     19 C          -1.9292    8.6756   -3.5104 C.3     1  LIG1        0.0389
     20 H          -2.1577    9.6136   -3.0056 H       1  LIG1        0.0395
     21 C          -3.1582    8.0563   -4.1757 C.3     1  LIG1       -0.0262
     22 C          -2.5675    7.2448   -5.3109 C.3     1  LIG1        0.0123
     23 N          -1.4292    8.0239   -5.6961 N.am    1  LIG1       -0.3151
     24 C          -1.0685    8.9405   -4.7271 C.2     1  LIG1        0.2162
     25 O          -0.1751    9.7620   -4.8201 O.2     1  LIG1       -0.2755
     26 N          -3.5056   11.1308   -0.0630 N.ar    1  LIG1       -0.3009
     27 C          -3.4936   11.4448   -1.4133 C.ar    1  LIG1        0.0089
     28 C          -2.9384   12.5720   -1.8569 C.ar    1  LIG1       -0.0435
     29 C          -2.4015   13.5167   -0.9271 C.ar    1  LIG1       -0.0338
     30 C          -2.4760   13.3512    0.4021 C.ar    1  LIG1        0.0991
     31 N          -2.0276   14.2769    1.3347 N.am    1  LIG1       -0.2758
     32 C          -1.3870   15.4672    1.0298 C.2     1  LIG1        0.2700
     33 O          -1.1521   15.8660   -0.1083 O.2     1  LIG1       -0.2681
     34 C          -0.9127   16.2700    2.1445 C.ar    1  LIG1        0.1681
     35 C           0.1858   17.1585    2.0533 C.ar    1  LIG1        0.0125
     36 C           0.1921   17.8228    3.2457 C.ar    1  LIG1        0.1350
     37 C           1.0240   18.9155    3.7735 C.3     1  LIG1       -0.0037
     38 O          -0.8061   17.3370    4.0347 O.2     1  LIG1       -0.3592
     39 N          -1.4915   16.3299    3.3529 N.ar    1  LIG1       -0.0734
     40 C          -3.0656   12.0491    0.9094 C.ar    1  LIG1        0.2733
     41 O          -3.0984   11.8409    2.1229 O.2     1  LIG1       -0.2656
     42 H          -6.4262   12.7432    2.9250 H       1  LIG1        0.1228
     43 H          -6.1363   10.0422   -0.3121 H       1  LIG1        0.0422
     44 H          -5.9377    8.9486    1.0498 H       1  LIG1        0.0422
     45 H          -1.7756    8.6895    0.0599 H       1  LIG1        0.1493
     46 H          -1.6408    5.3984   -0.1562 H       1  LIG1        0.0593
     47 H           0.8603    7.0461   -0.9403 H       1  LIG1        0.0686
     48 H           0.0283    3.2431    2.5694 H       1  LIG1        0.0695
     49 H           1.6837    3.7576    2.2224 H       1  LIG1        0.0695
     50 H          -0.0847    2.0175    0.3873 H       1  LIG1        0.0262
     51 H           1.2220    1.3918    1.4258 H       1  LIG1        0.0262
     52 H           1.5821    2.4551    0.0476 H       1  LIG1        0.0262
     53 H          -0.7788    6.8757   -3.1763 H       1  LIG1        0.0293
     54 H          -0.2850    8.2661   -2.2369 H       1  LIG1        0.0293
     55 H          -3.7815    8.8654   -4.5775 H       1  LIG1        0.0288
     56 H          -3.7855    7.4460   -3.5276 H       1  LIG1        0.0288
     57 H          -3.2561    7.1324   -6.1491 H       1  LIG1        0.0462
     58 H          -2.2244    6.2601   -4.9760 H       1  LIG1        0.0462
     59 H          -0.9361    7.9661   -6.5779 H       1  LIG1        0.1487
     60 H          -3.9295   10.7462   -2.1205 H       1  LIG1        0.0810
     61 H          -2.8897   12.8181   -2.9129 H       1  LIG1        0.0633
     62 H          -1.9680   14.3903   -1.3935 H       1  LIG1        0.0638
     63 H          -2.1695   14.0406    2.3168 H       1  LIG1        0.1553
     64 H           0.8383   17.3059    1.2045 H       1  LIG1        0.0676
     65 H           1.8350   19.1481    3.0735 H       1  LIG1        0.0309
     66 H           1.4728   18.6369    4.7297 H       1  LIG1        0.0309
     67 H           0.4288   19.8231    3.9070 H       1  LIG1        0.0309
@<TRIPOS>BOND
     1     1     2    3
     2     2     3    1
     3     3     4    1
     4     4     5    1
     5     4     6    1
     6     6     7    2
     7     6     8   am
     8     9    11    1
     9    11    12    2
    10    12    13    1
    11    13    14    2
    12    13    15    1
    13    15    16    1
    14    16    17    1
    15     9    18    1
    16    19    21    1
    17    21    22    1
    18    22    23    1
    19    23    24   am
    20    19    24    1
    21    24    25    2
    22     4    26    1
    23    26    27   ar
    24    27    28   ar
    25    28    29   ar
    26    29    30   ar
    27    30    31    1
    28    31    32   am
    29    32    33    2
    30    32    34    1
    31    34    35   ar
    32    35    36   ar
    33    36    37    1
    34    36    38   ar
    35    38    39   ar
    36    34    39   ar
    37    30    40   ar
    38    26    40   ar
    39    40    41    2
    40    19    20    1
    41    19    18    1
    42     9    10    1
    43     9     8    1
    44     1    42    1
    45     3    43    1
    46     3    44    1
    47     8    45    1
    48    11    46    1
    49    12    47    1
    50    16    48    1
    51    16    49    1
    52    17    50    1
    53    17    51    1
    54    17    52    1
    55    18    53    1
    56    18    54    1
    57    21    55    1
    58    21    56    1
    59    22    57    1
    60    22    58    1
    61    23    59    1
    62    27    60    1
    63    28    61    1
    64    29    62    1
    65    31    63    1
    66    35    64    1
    67    37    65    1
    68    37    66    1
    69    37    67    1
@<TRIPOS>MOLECULE
*****
 74 77 0 0 0
SMALL
GASTEIGER

@<TRIPOS>ATOM
      1 C          -0.7741    7.1509    5.6806 C.1     1  LIG1       -0.1191
      2 C          -0.7889    6.8188    4.5053 C.1     1  LIG1       -0.1030
      3 C          -0.8661    6.3567    3.1049 C.3     1  LIG1        0.0383
      4 C          -2.3212    6.3598    2.5791 C.3     1  LIG1        0.1239
      5 H          -2.6194    7.4182    2.5611 H       1  LIG1        0.0634
      6 C          -2.4698    5.9168    1.1020 C.2     1  LIG1        0.2374
      7 O          -3.0267    6.6490    0.2826 O.2     1  LIG1       -0.2735
      8 N          -1.9820    4.6769    0.7536 N.am    1  LIG1       -0.3073
      9 C          -2.1069    4.1530   -0.5978 C.3     1  LIG1        0.0427
     10 H          -2.1662    5.0009   -1.2930 H       1  LIG1        0.0543
     11 C          -3.3640    3.3587   -0.7360 C.2     1  LIG1       -0.0572
     12 C          -4.5844    3.8431   -1.0130 C.2     1  LIG1        0.0203
     13 C          -5.6858    2.9179   -1.3645 C.2     1  LIG1        0.3320
     14 O          -6.7394    3.2897   -1.8533 O.2     1  LIG1       -0.2456
     15 O          -5.3633    1.6615   -0.9776 O.3     1  LIG1       -0.4568
     16 C          -6.4461    0.7668   -0.7546 C.3     1  LIG1        0.1178
     17 C          -6.3454   -0.4439   -1.6426 C.ar    1  LIG1       -0.0103
     18 C          -7.4273   -0.7701   -2.4699 C.ar    1  LIG1       -0.0554
     19 C          -7.3840   -1.8972   -3.2880 C.ar    1  LIG1       -0.0614
     20 C          -6.2552   -2.7123   -3.2909 C.ar    1  LIG1       -0.0617
     21 C          -5.1717   -2.4044   -2.4684 C.ar    1  LIG1       -0.0614
     22 C          -5.2159   -1.2771   -1.6419 C.ar    1  LIG1       -0.0554
     23 C          -0.9070    3.2974   -1.0493 C.3     1  LIG1       -0.0197
     24 C          -0.6348    1.9986   -0.2675 C.3     1  LIG1        0.0389
     25 H          -1.4631    1.2848   -0.3483 H       1  LIG1        0.0395
     26 C          -0.2653    2.1919    1.2053 C.3     1  LIG1       -0.0262
     27 C           0.9010    1.2709    1.4709 C.3     1  LIG1        0.0123
     28 N           1.4537    1.0317    0.1784 N.am    1  LIG1       -0.3151
     29 C           0.5793    1.3098   -0.8434 C.2     1  LIG1        0.2162
     30 O           0.7561    1.0201   -2.0137 O.2     1  LIG1       -0.2755
     31 N          -3.2773    5.6568    3.4652 N.ar    1  LIG1       -0.3009
     32 C          -4.3502    6.3701    3.9804 C.ar    1  LIG1        0.0089
     33 C          -5.2218    5.8038    4.8199 C.ar    1  LIG1       -0.0435
     34 C          -5.0180    4.4542    5.2698 C.ar    1  LIG1       -0.0338
     35 C          -3.9589    3.7339    4.8721 C.ar    1  LIG1        0.0991
     36 N          -3.6256    2.4757    5.3279 N.am    1  LIG1       -0.2758
     37 C          -4.3079    1.7131    6.2528 C.2     1  LIG1        0.2700
     38 O          -5.3418    2.0437    6.8250 O.2     1  LIG1       -0.2681
     39 C          -3.7406    0.3885    6.4665 C.ar    1  LIG1        0.1681
     40 C          -4.4687   -0.7535    6.8701 C.ar    1  LIG1        0.0125
     41 C          -3.5436   -1.7608    6.8883 C.ar    1  LIG1        0.1350
     42 C          -3.6350   -3.2042    7.1575 C.3     1  LIG1       -0.0037
     43 O          -2.3226   -1.2570    6.5618 O.2     1  LIG1       -0.3592
     44 N          -2.4449    0.0950    6.2640 N.ar    1  LIG1       -0.0734
     45 C          -3.0345    4.3371    3.8387 C.ar    1  LIG1        0.2733
     46 O          -2.1201    3.6526    3.3742 O.2     1  LIG1       -0.2656
     47 H          -0.7774    7.3960    6.6885 H       1  LIG1        0.1228
     48 H          -0.4151    5.3566    3.0406 H       1  LIG1        0.0422
     49 H          -0.2477    6.9950    2.4564 H       1  LIG1        0.0422
     50 H          -1.8193    4.0356    1.5279 H       1  LIG1        0.1493
     51 H          -3.2338    2.2823   -0.7764 H       1  LIG1        0.0593
     52 H          -4.8099    4.9033   -1.0358 H       1  LIG1        0.0686
     53 H          -7.4195    1.2602   -0.8526 H       1  LIG1        0.0749
     54 H          -6.3610    0.4440    0.2880 H       1  LIG1        0.0749
     55 H          -8.3135   -0.1392   -2.4810 H       1  LIG1        0.0621
     56 H          -8.2317   -2.1322   -3.9255 H       1  LIG1        0.0618
     57 H          -6.2204   -3.5847   -3.9381 H       1  LIG1        0.0618
     58 H          -4.2917   -3.0431   -2.4773 H       1  LIG1        0.0618
     59 H          -4.3636   -1.0543   -1.0029 H       1  LIG1        0.0621
     60 H          -0.0048    3.9211   -1.0515 H       1  LIG1        0.0293
     61 H          -1.0700    3.0219   -2.1042 H       1  LIG1        0.0293
     62 H          -1.1095    1.9511    1.8593 H       1  LIG1        0.0288
     63 H           0.0549    3.2181    1.4097 H       1  LIG1        0.0288
     64 H           0.5838    0.3191    1.9058 H       1  LIG1        0.0462
     65 H           1.6493    1.7402    2.1149 H       1  LIG1        0.0462
     66 H           2.3043    0.5174   -0.0088 H       1  LIG1        0.1487
     67 H          -4.4595    7.4112    3.6878 H       1  LIG1        0.0810
     68 H          -6.0674    6.3529    5.2220 H       1  LIG1        0.0633
     69 H          -5.7420    4.0884    5.9885 H       1  LIG1        0.0638
     70 H          -2.7778    2.0696    4.9318 H       1  LIG1        0.1553
     71 H          -5.5288   -0.8170    7.0675 H       1  LIG1        0.0676
     72 H          -2.8322   -3.7516    6.6564 H       1  LIG1        0.0309
     73 H          -4.5898   -3.5948    6.7891 H       1  LIG1        0.0309
     74 H          -3.5784   -3.3983    8.2321 H       1  LIG1        0.0309
@<TRIPOS>BOND
     1     1     2    3
     2     2     3    1
     3     3     4    1
     4     4     5    1
     5     4     6    1
     6     6     7    2
     7     6     8   am
     8     9    11    1
     9    11    12    2
    10    12    13    1
    11    13    14    2
    12    13    15    1
    13    15    16    1
    14    16    17    1
    15    17    18   ar
    16    18    19   ar
    17    19    20   ar
    18    20    21   ar
    19    21    22   ar
    20    17    22   ar
    21     9    23    1
    22    24    26    1
    23    26    27    1
    24    27    28    1
    25    28    29   am
    26    24    29    1
    27    29    30    2
    28     4    31    1
    29    31    32   ar
    30    32    33   ar
    31    33    34   ar
    32    34    35   ar
    33    35    36    1
    34    36    37   am
    35    37    38    2
    36    37    39    1
    37    39    40   ar
    38    40    41   ar
    39    41    42    1
    40    41    43   ar
    41    43    44   ar
    42    39    44   ar
    43    35    45   ar
    44    31    45   ar
    45    45    46    2
    46     9    10    1
    47     9     8    1
    48    24    25    1
    49    24    23    1
    50     1    47    1
    51     3    48    1
    52     3    49    1
    53     8    50    1
    54    11    51    1
    55    12    52    1
    56    16    53    1
    57    16    54    1
    58    18    55    1
    59    19    56    1
    60    20    57    1
    61    21    58    1
    62    22    59    1
    63    23    60    1
    64    23    61    1
    65    26    62    1
    66    26    63    1
    67    27    64    1
    68    27    65    1
    69    28    66    1
    70    32    67    1
    71    33    68    1
    72    34    69    1
    73    36    70    1
    74    40    71    1
    75    42    72    1
    76    42    73    1
    77    42    74    1
@<TRIPOS>MOLECULE
*****
 82 84 0 0 0
SMALL
GASTEIGER

@<TRIPOS>ATOM
      1 C           7.9796   -9.5876    0.2815 C.3     1  LIG1       -0.0306
      2 C           8.1170   -8.6250   -0.8827 C.3     1  LIG1        0.0900
      3 O           6.8264   -8.2124   -1.3429 O.3     1  LIG1       -0.4618
      4 C           6.1735   -9.0545   -2.1714 C.2     1  LIG1        0.3317
      5 O           6.5691  -10.1452   -2.5682 O.2     1  LIG1       -0.2456
      6 C           4.8376   -8.5207   -2.5145 C.2     1  LIG1        0.0203
      7 C           4.2787   -7.5028   -1.8305 C.2     1  LIG1       -0.0572
      8 C           2.8751   -6.9770   -1.9082 C.3     1  LIG1        0.0427
      9 H           2.8948   -5.9352   -1.5659 H       1  LIG1        0.0543
     10 C           1.8488   -7.7513   -1.0299 C.3     1  LIG1       -0.0197
     11 C           2.1717   -7.7713    0.4857 C.3     1  LIG1        0.0389
     12 H           2.1903   -6.7469    0.8798 H       1  LIG1        0.0395
     13 C           3.4168   -8.5533    0.8948 C.3     1  LIG1       -0.0262
     14 C           2.9555   -9.9964    0.9877 C.3     1  LIG1        0.0123
     15 N           1.6124   -9.8762    1.4148 N.am    1  LIG1       -0.3151
     16 C           1.1273   -8.5670    1.2760 C.2     1  LIG1        0.2162
     17 O           0.0980   -8.1635    1.7315 O.2     1  LIG1       -0.2755
     18 N           2.5316   -6.9616   -3.3114 N.am    1  LIG1       -0.3088
     19 C           1.6749   -6.0410   -3.8538 C.2     1  LIG1        0.2173
     20 O           1.1483   -5.1424   -3.2026 O.2     1  LIG1       -0.2755
     21 C           1.4143   -6.2571   -5.3432 C.3     1  LIG1        0.0462
     22 H           2.3153   -6.6857   -5.8018 H       1  LIG1        0.0401
     23 C           0.2267   -7.2039   -5.5269 C.3     1  LIG1        0.0191
     24 C           0.3430   -8.6432   -5.0335 C.2     1  LIG1        0.1544
     25 O           1.0789   -8.9494   -4.0915 O.2     1  LIG1       -0.2954
     26 C          -0.4782   -9.7196   -5.7849 C.3     1  LIG1        0.0841
     27 H          -0.0374   -9.7633   -6.7877 H       1  LIG1        0.0580
     28 N          -0.2449  -11.0246   -5.1406 N.am    1  LIG1       -0.3001
     29 C           0.2406  -12.1250   -5.8219 C.2     1  LIG1        0.2663
     30 O           0.5740  -12.0829   -6.9935 O.2     1  LIG1       -0.2684
     31 C           0.2757  -13.3790   -5.0463 C.ar    1  LIG1        0.1678
     32 C           0.2938  -14.6951   -5.5842 C.ar    1  LIG1        0.0125
     33 C           0.2293  -15.5241   -4.4924 C.ar    1  LIG1        0.1350
     34 C           0.1488  -16.9880   -4.3153 C.3     1  LIG1       -0.0037
     35 O           0.2191  -14.7649   -3.3632 O.2     1  LIG1       -0.3592
     36 N           0.2289  -13.4181   -3.7042 N.ar    1  LIG1       -0.0734
     37 C          -2.0022   -9.4573   -5.9358 C.3     1  LIG1       -0.0213
     38 C          -2.7437   -9.3483   -4.6014 C.3     1  LIG1       -0.0606
     39 C          -2.3571   -8.2529   -6.8181 C.3     1  LIG1       -0.0606
     40 C           1.1034   -4.8778   -5.9895 C.3     1  LIG1       -0.0162
     41 C           0.8633   -4.8784   -7.4878 C.ar    1  LIG1       -0.0466
     42 C          -0.3588   -4.4295   -8.0171 C.ar    1  LIG1       -0.0586
     43 C          -0.5684   -4.3856   -9.3995 C.ar    1  LIG1       -0.0615
     44 C           0.4350   -4.8013  -10.2705 C.ar    1  LIG1       -0.0617
     45 C           1.6509   -5.2500   -9.7591 C.ar    1  LIG1       -0.0615
     46 C           1.8689   -5.2771   -8.3778 C.ar    1  LIG1       -0.0586
     47 H           8.9495   -9.7573    0.7568 H       1  LIG1        0.0262
     48 H           7.5858  -10.5522   -0.0537 H       1  LIG1        0.0262
     49 H           7.2782   -9.1993    1.0276 H       1  LIG1        0.0262
     50 H           8.7080   -9.0494   -1.7012 H       1  LIG1        0.0695
     51 H           8.6271   -7.7169   -0.5456 H       1  LIG1        0.0695
     52 H           4.3173   -9.0743   -3.2875 H       1  LIG1        0.0686
     53 H           4.8610   -7.0054   -1.0551 H       1  LIG1        0.0593
     54 H           1.7246   -8.7762   -1.4028 H       1  LIG1        0.0293
     55 H           0.8610   -7.2845   -1.1694 H       1  LIG1        0.0293
     56 H           3.7513   -8.1932    1.8764 H       1  LIG1        0.0288
     57 H           4.2808   -8.4942    0.2529 H       1  LIG1        0.0288
     58 H           3.5463  -10.5603    1.7060 H       1  LIG1        0.0462
     59 H           2.9753  -10.4968    0.0109 H       1  LIG1        0.0462
     60 H           1.1027  -10.5554    1.9640 H       1  LIG1        0.1487
     61 H           2.5533   -7.8623   -3.7833 H       1  LIG1        0.1493
     62 H           0.0438   -7.2723   -6.6026 H       1  LIG1        0.0350
     63 H          -0.6445   -6.7689   -5.0272 H       1  LIG1        0.0350
     64 H          -0.3501  -11.1112   -4.1347 H       1  LIG1        0.1498
     65 H           0.2998  -14.9798   -6.6257 H       1  LIG1        0.0676
     66 H           0.0101  -17.4934   -5.2773 H       1  LIG1        0.0309
     67 H          -0.6986  -17.2554   -3.6754 H       1  LIG1        0.0309
     68 H           1.0625  -17.3780   -3.8571 H       1  LIG1        0.0309
     69 H          -2.4183  -10.3311   -6.4570 H       1  LIG1        0.0317
     70 H          -2.2912   -8.6019   -3.9419 H       1  LIG1        0.0233
     71 H          -2.7545  -10.3105   -4.0800 H       1  LIG1        0.0233
     72 H          -3.7884   -9.0580   -4.7652 H       1  LIG1        0.0233
     73 H          -2.1913   -7.2987   -6.3135 H       1  LIG1        0.0233
     74 H          -3.4216   -8.2625   -7.0735 H       1  LIG1        0.0233
     75 H          -1.7887   -8.2620   -7.7533 H       1  LIG1        0.0233
     76 H           1.9293   -4.1819   -5.7878 H       1  LIG1        0.0321
     77 H           0.2276   -4.4376   -5.4928 H       1  LIG1        0.0321
     78 H          -1.1574   -4.0917   -7.3594 H       1  LIG1        0.0620
     79 H          -1.5103   -4.0153   -9.7983 H       1  LIG1        0.0618
     80 H           0.2756   -4.7627  -11.3456 H       1  LIG1        0.0618
     81 H           2.4379   -5.5657  -10.4397 H       1  LIG1        0.0618
     82 H           2.8398   -5.5940   -8.0056 H       1  LIG1        0.0620
@<TRIPOS>BOND
     1     1     2    1
     2     2     3    1
     3     3     4    1
     4     4     5    2
     5     4     6    1
     6     6     7    2
     7     8    10    1
     8    11    13    1
     9    13    14    1
    10    14    15    1
    11    15    16   am
    12    11    16    1
    13    16    17    2
    14     8    18    1
    15    18    19   am
    16    19    20    2
    17    19    21    1
    18    21    22    1
    19    21    23    1
    20    23    24    1
    21    24    25    2
    22    24    26    1
    23    26    27    1
    24    26    28    1
    25    28    29   am
    26    29    30    2
    27    29    31    1
    28    31    32   ar
    29    32    33   ar
    30    33    34    1
    31    33    35   ar
    32    35    36   ar
    33    31    36   ar
    34    26    37    1
    35    37    38    1
    36    37    39    1
    37    21    40    1
    38    40    41    1
    39    41    42   ar
    40    42    43   ar
    41    43    44   ar
    42    44    45   ar
    43    45    46   ar
    44    41    46   ar
    45    11    12    1
    46    11    10    1
    47     8     9    1
    48     8     7    1
    49     1    47    1
    50     1    48    1
    51     1    49    1
    52     2    50    1
    53     2    51    1
    54     6    52    1
    55     7    53    1
    56    10    54    1
    57    10    55    1
    58    13    56    1
    59    13    57    1
    60    14    58    1
    61    14    59    1
    62    15    60    1
    63    18    61    1
    64    23    62    1
    65    23    63    1
    66    28    64    1
    67    32    65    1
    68    34    66    1
    69    34    67    1
    70    34    68    1
    71    37    69    1
    72    38    70    1
    73    38    71    1
    74    38    72    1
    75    39    73    1
    76    39    74    1
    77    39    75    1
    78    40    76    1
    79    40    77    1
    80    42    78    1
    81    43    79    1
    82    44    80    1
    83    45    81    1
    84    46    82    1
@<TRIPOS>MOLECULE
*****
 82 83 0 0 0
SMALL
GASTEIGER

@<TRIPOS>ATOM
      1 C           6.7263   -1.2431    2.0289 C.3     1  LIG1       -0.0306
      2 C           8.0587   -1.9603    2.1244 C.3     1  LIG1        0.0900
      3 O           8.8470   -1.5109    3.2357 O.3     1  LIG1       -0.4618
      4 C           9.3744   -2.5319    3.9613 C.2     1  LIG1        0.3317
      5 O           8.7971   -3.5694    4.2553 O.2     1  LIG1       -0.2456
      6 C          10.8384   -2.3659    4.1279 C.2     1  LIG1        0.0203
      7 C          11.5173   -1.2080    4.0417 C.2     1  LIG1       -0.0572
      8 C          13.0289   -1.1452    3.9973 C.3     1  LIG1        0.0427
      9 H          13.4660   -2.0619    4.4084 H       1  LIG1        0.0543
     10 C          13.6364    0.0951    4.6985 C.3     1  LIG1       -0.0197
     11 C          13.4332    0.1925    6.2163 C.3     1  LIG1        0.0389
     12 H          12.3738    0.1447    6.4873 H       1  LIG1        0.0395
     13 C          14.0548    1.4792    6.8046 C.3     1  LIG1       -0.0262
     14 C          15.4761    1.0830    7.1675 C.3     1  LIG1        0.0123
     15 N          15.3497   -0.3056    7.4859 N.am    1  LIG1       -0.3151
     16 C          14.2216   -0.8807    6.9418 C.2     1  LIG1        0.2162
     17 O          13.9516   -2.0644    6.9954 O.2     1  LIG1       -0.2755
     18 N          13.3745   -1.0772    2.5749 N.am    1  LIG1       -0.3088
     19 C          13.5400   -2.1862    1.7608 C.2     1  LIG1        0.2173
     20 O          13.4712   -3.3370    2.1651 O.2     1  LIG1       -0.2755
     21 C          13.7980   -1.8515    0.2837 C.3     1  LIG1        0.0457
     22 H          14.3345   -0.8941    0.2265 H       1  LIG1        0.0401
     23 C          12.4775   -1.7520   -0.5319 C.3     1  LIG1       -0.0230
     24 C          11.5127   -0.6905   -0.0767 C.2     1  LIG1       -0.0846
     25 C          10.3111   -0.3752   -0.5981 C.2     1  LIG1       -0.0796
     26 C           9.6542   -1.0374   -1.7772 C.3     1  LIG1       -0.0440
     27 C           9.4990    0.7292    0.0305 C.3     1  LIG1       -0.0440
     28 C          14.6662   -2.9609   -0.3413 C.3     1  LIG1        0.0191
     29 C          16.0295   -3.1408    0.3210 C.2     1  LIG1        0.1544
     30 O          16.6157   -2.1681    0.8017 O.2     1  LIG1       -0.2954
     31 C          16.7182   -4.5082    0.0927 C.3     1  LIG1        0.0841
     32 H          15.9173   -5.2356   -0.0965 H       1  LIG1        0.0580
     33 N          17.5134   -4.3957   -1.1227 N.am    1  LIG1       -0.3001
     34 C          17.7390   -5.4737   -1.9508 C.2     1  LIG1        0.2663
     35 O          17.1840   -6.5598   -1.8151 O.2     1  LIG1       -0.2684
     36 C          18.6629   -5.2278   -3.0446 C.ar    1  LIG1        0.1678
     37 C          18.7879   -6.0271   -4.1970 C.ar    1  LIG1        0.0125
     38 C          19.7126   -5.3678   -4.9723 C.ar    1  LIG1        0.1350
     39 C          20.2601   -5.6016   -6.3110 C.3     1  LIG1       -0.0037
     40 O          20.1700   -4.2747   -4.2913 O.2     1  LIG1       -0.3592
     41 N          19.4952   -4.1710   -3.0840 N.ar    1  LIG1       -0.0734
     42 C          17.5339   -5.0520    1.2990 C.3     1  LIG1       -0.0213
     43 C          18.0925   -6.4576    1.0135 C.3     1  LIG1       -0.0606
     44 C          18.6963   -4.1666    1.7584 C.3     1  LIG1       -0.0606
     45 H           6.1960   -1.5663    1.1252 H       1  LIG1        0.0262
     46 H           6.8579   -0.1581    1.9785 H       1  LIG1        0.0262
     47 H           6.0964   -1.4577    2.8961 H       1  LIG1        0.0262
     48 H           8.6461   -1.7256    1.2354 H       1  LIG1        0.0695
     49 H           7.9031   -3.0436    2.1172 H       1  LIG1        0.0695
     50 H          11.3637   -3.3152    4.2222 H       1  LIG1        0.0686
     51 H          10.9705   -0.2754    3.9277 H       1  LIG1        0.0593
     52 H          13.2292    1.0043    4.2316 H       1  LIG1        0.0293
     53 H          14.7135    0.1072    4.4779 H       1  LIG1        0.0293
     54 H          13.5187    1.7511    7.7245 H       1  LIG1        0.0288
     55 H          14.0179    2.3491    6.1389 H       1  LIG1        0.0288
     56 H          15.8688    1.6371    8.0267 H       1  LIG1        0.0462
     57 H          16.1638    1.1885    6.3222 H       1  LIG1        0.0462
     58 H          16.0546   -0.8805    7.9322 H       1  LIG1        0.1487
     59 H          13.4281   -0.1597    2.1566 H       1  LIG1        0.1493
     60 H          11.9717   -2.7258   -0.5180 H       1  LIG1        0.0315
     61 H          12.7433   -1.5371   -1.5767 H       1  LIG1        0.0315
     62 H          11.8258   -0.1044    0.7798 H       1  LIG1        0.0572
     63 H          10.2373   -1.8667   -2.1856 H       1  LIG1        0.0274
     64 H           9.4986   -0.3056   -2.5775 H       1  LIG1        0.0274
     65 H           8.6730   -1.4336   -1.4898 H       1  LIG1        0.0274
     66 H           9.9113    1.0425    0.9964 H       1  LIG1        0.0274
     67 H           8.4721    0.4000    0.2108 H       1  LIG1        0.0274
     68 H           9.4711    1.6005   -0.6290 H       1  LIG1        0.0274
     69 H          14.8637   -2.7278   -1.3951 H       1  LIG1        0.0350
     70 H          14.1320   -3.9168   -0.3071 H       1  LIG1        0.0350
     71 H          17.9949   -3.5266   -1.3376 H       1  LIG1        0.1498
     72 H          18.2454   -6.9346   -4.4514 H       1  LIG1        0.0676
     73 H          19.6557   -6.3374   -6.8466 H       1  LIG1        0.0309
     74 H          21.2860   -5.9819   -6.2590 H       1  LIG1        0.0309
     75 H          20.2560   -4.6786   -6.8974 H       1  LIG1        0.0309
     76 H          16.8410   -5.1445    2.1441 H       1  LIG1        0.0317
     77 H          18.9163   -6.4230    0.2910 H       1  LIG1        0.0233
     78 H          17.3133   -7.1208    0.6258 H       1  LIG1        0.0233
     79 H          18.4887   -6.9194    1.9232 H       1  LIG1        0.0233
     80 H          19.4017   -3.9602    0.9473 H       1  LIG1        0.0233
     81 H          19.2533   -4.6631    2.5625 H       1  LIG1        0.0233
     82 H          18.3447   -3.2163    2.1664 H       1  LIG1        0.0233
@<TRIPOS>BOND
     1     1     2    1
     2     2     3    1
     3     3     4    1
     4     4     5    2
     5     4     6    1
     6     6     7    2
     7     8    10    1
     8    11    13    1
     9    13    14    1
    10    14    15    1
    11    15    16   am
    12    11    16    1
    13    16    17    2
    14     8    18    1
    15    18    19   am
    16    19    20    2
    17    21    23    1
    18    23    24    1
    19    24    25    2
    20    25    26    1
    21    25    27    1
    22    21    28    1
    23    28    29    1
    24    29    30    2
    25    29    31    1
    26    31    32    1
    27    31    33    1
    28    33    34   am
    29    34    35    2
    30    34    36    1
    31    36    37   ar
    32    37    38   ar
    33    38    39    1
    34    38    40   ar
    35    40    41   ar
    36    36    41   ar
    37    31    42    1
    38    42    43    1
    39    42    44    1
    40    21    22    1
    41    21    19    1
    42    11    12    1
    43    11    10    1
    44     8     9    1
    45     8     7    1
    46     1    45    1
    47     1    46    1
    48     1    47    1
    49     2    48    1
    50     2    49    1
    51     6    50    1
    52     7    51    1
    53    10    52    1
    54    10    53    1
    55    13    54    1
    56    13    55    1
    57    14    56    1
    58    14    57    1
    59    15    58    1
    60    18    59    1
    61    23    60    1
    62    23    61    1
    63    24    62    1
    64    26    63    1
    65    26    64    1
    66    26    65    1
    67    27    66    1
    68    27    67    1
    69    27    68    1
    70    28    69    1
    71    28    70    1
    72    33    71    1
    73    37    72    1
    74    39    73    1
    75    39    74    1
    76    39    75    1
    77    42    76    1
    78    43    77    1
    79    43    78    1
    80    43    79    1
    81    44    80    1
    82    44    81    1
    83    44    82    1
@<TRIPOS>MOLECULE
*****
 84 86 0 0 0
SMALL
GASTEIGER

@<TRIPOS>ATOM
      1 C           8.3657   -2.6264    1.7335 C.3     1  LIG1       -0.0306
      2 C           7.7077   -1.3901    1.1433 C.3     1  LIG1        0.0900
      3 O           7.4720   -1.6424   -0.2424 O.3     1  LIG1       -0.4618
      4 C           6.3588   -2.3709   -0.5173 C.2     1  LIG1        0.3317
      5 O           5.3723   -2.4856    0.1846 O.2     1  LIG1       -0.2456
      6 C           6.6022   -3.1834   -1.7285 C.2     1  LIG1        0.0203
      7 C           7.5129   -2.8353   -2.6522 C.2     1  LIG1       -0.0572
      8 C           7.8162   -3.6341   -3.8831 C.3     1  LIG1        0.0427
      9 H           7.5641   -4.6886   -3.7196 H       1  LIG1        0.0543
     10 C           9.2893   -3.5292   -4.3124 C.3     1  LIG1       -0.0197
     11 C          10.3263   -4.0329   -3.2994 C.3     1  LIG1        0.0389
     12 H          10.2368   -3.5101   -2.3400 H       1  LIG1        0.0395
     13 C          11.7604   -3.8542   -3.8351 C.3     1  LIG1       -0.0262
     14 C          12.4360   -5.2106   -3.7474 C.3     1  LIG1        0.0123
     15 N          11.4190   -6.1163   -3.3369 N.am    1  LIG1       -0.3151
     16 C          10.2127   -5.5230   -3.0311 C.2     1  LIG1        0.2162
     17 O           9.2583   -6.1036   -2.6026 O.2     1  LIG1       -0.2755
     18 N           6.9557   -3.0862   -4.9303 N.am    1  LIG1       -0.3088
     19 C           5.7521   -3.6832   -5.2278 C.2     1  LIG1        0.2170
     20 O           5.4768   -4.7725   -4.7176 O.2     1  LIG1       -0.2755
     21 C           4.8733   -2.9829   -6.2809 C.3     1  LIG1        0.0419
     22 H           4.7722   -1.9289   -5.9840 H       1  LIG1        0.0398
     23 C           3.4389   -3.5881   -6.4306 C.3     1  LIG1       -0.0165
     24 C           2.4730   -3.5656   -5.2582 C.ar    1  LIG1       -0.0466
     25 C           2.7403   -4.2535   -4.0708 C.ar    1  LIG1       -0.0586
     26 C           1.8733   -4.2471   -2.9848 C.ar    1  LIG1       -0.0615
     27 C           0.6522   -3.6099   -3.0933 C.ar    1  LIG1       -0.0617
     28 C           0.3132   -2.9801   -4.2896 C.ar    1  LIG1       -0.0615
     29 C           1.2163   -2.9504   -5.3632 C.ar    1  LIG1       -0.0586
     30 C           5.6527   -3.0903   -7.6457 C.3     1  LIG1       -0.0137
     31 C           5.0085   -2.3244   -8.8181 C.3     1  LIG1        0.0745
     32 O           5.0012   -0.9385   -8.4496 O.3     1  LIG1       -0.3899
     33 C           5.6314   -2.4820  -10.2563 C.3     1  LIG1        0.0517
     34 H           5.0803   -1.7663  -10.8830 H       1  LIG1        0.0526
     35 N           7.0282   -2.0180  -10.3060 N.am    1  LIG1       -0.3044
     36 C           7.5527   -1.4145  -11.4435 C.2     1  LIG1        0.2660
     37 O           6.8909   -1.2158  -12.4614 O.2     1  LIG1       -0.2684
     38 C           8.9611   -1.0212  -11.3799 C.ar    1  LIG1        0.1678
     39 C           9.7243   -0.4733  -12.4452 C.ar    1  LIG1        0.0125
     40 C          10.9548   -0.2169  -11.9006 C.ar    1  LIG1        0.1350
     41 C          12.2059    0.3543  -12.4350 C.3     1  LIG1       -0.0037
     42 O          10.9495   -0.5994  -10.5943 O.2     1  LIG1       -0.3592
     43 N           9.7017   -1.1141  -10.2608 N.ar    1  LIG1       -0.0734
     44 C           5.4169   -3.8954  -10.9006 C.3     1  LIG1       -0.0258
     45 C           3.9245   -4.2135  -11.1029 C.3     1  LIG1       -0.0609
     46 C           6.0778   -4.0704  -12.2797 C.3     1  LIG1       -0.0609
     47 H           8.6386   -2.4706    2.7789 H       1  LIG1        0.0262
     48 H           9.2652   -2.8869    1.1634 H       1  LIG1        0.0262
     49 H           7.6977   -3.4924    1.6680 H       1  LIG1        0.0262
     50 H           8.3962   -0.5412    1.2024 H       1  LIG1        0.0695
     51 H           6.7905   -1.1168    1.6748 H       1  LIG1        0.0695
     52 H           6.0009   -4.0843   -1.8091 H       1  LIG1        0.0686
     53 H           8.0813   -1.9179   -2.5250 H       1  LIG1        0.0593
     54 H           9.5131   -2.4786   -4.5422 H       1  LIG1        0.0293
     55 H           9.4067   -4.0785   -5.2564 H       1  LIG1        0.0293
     56 H          12.3070   -3.1142   -3.2385 H       1  LIG1        0.0288
     57 H          11.7749   -3.4867   -4.8680 H       1  LIG1        0.0288
     58 H          13.2429   -5.2248   -3.0098 H       1  LIG1        0.0462
     59 H          12.8300   -5.5385   -4.7147 H       1  LIG1        0.0462
     60 H          11.5431   -7.1089   -3.1757 H       1  LIG1        0.1487
     61 H           7.1560   -2.1637   -5.2931 H       1  LIG1        0.1493
     62 H           3.5109   -4.6204   -6.7955 H       1  LIG1        0.0320
     63 H           2.9334   -3.0331   -7.2299 H       1  LIG1        0.0320
     64 H           3.6177   -4.8641   -3.9438 H       1  LIG1        0.0620
     65 H           2.1688   -4.7654   -2.0767 H       1  LIG1        0.0618
     66 H          -0.0335   -3.6281   -2.2530 H       1  LIG1        0.0618
     67 H          -0.6622   -2.5123   -4.3853 H       1  LIG1        0.0618
     68 H           0.9100   -2.4604   -6.2855 H       1  LIG1        0.0620
     69 H           5.7697   -4.1524   -7.8892 H       1  LIG1        0.0298
     70 H           6.6628   -2.6907   -7.4890 H       1  LIG1        0.0298
     71 H           3.9611   -2.6094   -8.9050 H       1  LIG1        0.0612
     72 H           5.9148   -0.6122   -8.5259 H       1  LIG1        0.2099
     73 H           7.6914   -2.2579   -9.5758 H       1  LIG1        0.1494
     74 H           9.3990   -0.2874  -13.4593 H       1  LIG1        0.0676
     75 H          11.9923    1.1252  -13.1835 H       1  LIG1        0.0309
     76 H          12.8049   -0.4257  -12.9150 H       1  LIG1        0.0309
     77 H          12.8067    0.8131  -11.6441 H       1  LIG1        0.0309
     78 H           5.8474   -4.6545  -10.2381 H       1  LIG1        0.0314
     79 H           3.4499   -3.4787  -11.7650 H       1  LIG1        0.0233
     80 H           3.3728   -4.2369  -10.1613 H       1  LIG1        0.0233
     81 H           3.7992   -5.1981  -11.5696 H       1  LIG1        0.0233
     82 H           5.6843   -3.3496  -13.0058 H       1  LIG1        0.0233
     83 H           5.8750   -5.0689  -12.6842 H       1  LIG1        0.0233
     84 H           7.1650   -3.9700  -12.2290 H       1  LIG1        0.0233
@<TRIPOS>BOND
     1     1     2    1
     2     2     3    1
     3     3     4    1
     4     4     5    2
     5     4     6    1
     6     6     7    2
     7     8    10    1
     8    11    13    1
     9    13    14    1
    10    14    15    1
    11    15    16   am
    12    11    16    1
    13    16    17    2
    14     8    18    1
    15    18    19   am
    16    19    20    2
    17    21    23    1
    18    23    24    1
    19    24    25   ar
    20    25    26   ar
    21    26    27   ar
    22    27    28   ar
    23    28    29   ar
    24    24    29   ar
    25    21    30    1
    26    30    31    1
    27    31    32    1
    28    31    33    1
    29    33    34    1
    30    33    35    1
    31    35    36   am
    32    36    37    2
    33    36    38    1
    34    38    39   ar
    35    39    40   ar
    36    40    41    1
    37    40    42   ar
    38    42    43   ar
    39    38    43   ar
    40    33    44    1
    41    44    45    1
    42    44    46    1
    43     8     9    1
    44     8     7    1
    45    11    12    1
    46    11    10    1
    47    21    22    1
    48    21    19    1
    49     1    47    1
    50     1    48    1
    51     1    49    1
    52     2    50    1
    53     2    51    1
    54     6    52    1
    55     7    53    1
    56    10    54    1
    57    10    55    1
    58    13    56    1
    59    13    57    1
    60    14    58    1
    61    14    59    1
    62    15    60    1
    63    18    61    1
    64    23    62    1
    65    23    63    1
    66    25    64    1
    67    26    65    1
    68    27    66    1
    69    28    67    1
    70    29    68    1
    71    30    69    1
    72    30    70    1
    73    31    71    1
    74    32    72    1
    75    35    73    1
    76    39    74    1
    77    41    75    1
    78    41    76    1
    79    41    77    1
    80    44    78    1
    81    45    79    1
    82    45    80    1
    83    45    81    1
    84    46    82    1
    85    46    83    1
    86    46    84    1
@<TRIPOS>MOLECULE
*****
 82 84 0 0 0
SMALL
GASTEIGER

@<TRIPOS>ATOM
      1 C           2.8128    5.8977   -5.6308 C.3     1  LIG1       -0.0306
      2 C           3.8153    6.2851   -4.5568 C.3     1  LIG1        0.0900
      3 O           4.3964    5.0630   -4.0710 O.3     1  LIG1       -0.4618
      4 C           3.6984    4.4730   -3.0745 C.2     1  LIG1        0.3317
      5 O           2.9327    5.0345   -2.2853 O.2     1  LIG1       -0.2456
      6 C           3.9033    3.0160   -3.1508 C.2     1  LIG1        0.0203
      7 C           2.9129    2.1826   -2.7618 C.2     1  LIG1       -0.0572
      8 C           3.0364    0.6899   -2.5949 C.3     1  LIG1        0.0427
      9 H           4.0775    0.4185   -2.8330 H       1  LIG1        0.0543
     10 C           2.1817   -0.1658   -3.5603 C.3     1  LIG1       -0.0197
     11 C           0.6428   -0.1575   -3.6413 C.3     1  LIG1        0.0389
     12 H           0.2394   -0.5689   -2.7068 H       1  LIG1        0.0395
     13 C           0.2363   -1.1024   -4.8161 C.3     1  LIG1       -0.0262
     14 C          -0.3157   -0.1843   -5.8806 C.3     1  LIG1        0.0123
     15 N          -0.8747    0.8691   -5.1196 N.am    1  LIG1       -0.3151
     16 C          -0.1863    1.0696   -3.9447 C.2     1  LIG1        0.2162
     17 O          -0.3208    2.0764   -3.2330 O.2     1  LIG1       -0.2755
     18 N           2.8760    0.3939   -1.1561 N.am    1  LIG1       -0.3088
     19 C           3.2250   -0.8000   -0.5439 C.2     1  LIG1        0.2173
     20 O           3.6141   -1.7759   -1.1845 O.2     1  LIG1       -0.2755
     21 C           3.1096   -0.8595    1.0115 C.3     1  LIG1        0.0462
     22 C           2.0542   -1.9019    1.4641 C.3     1  LIG1        0.0191
     23 C           0.6099   -1.7094    1.0196 C.2     1  LIG1        0.1544
     24 O           0.1934   -0.5600    0.8372 O.2     1  LIG1       -0.2954
     25 C          -0.3466   -2.9830    0.9558 C.3     1  LIG1        0.0841
     26 H          -0.3524   -3.4668    1.9412 H       1  LIG1        0.0580
     27 N          -1.7329   -2.5143    0.7361 N.am    1  LIG1       -0.3001
     28 C          -2.4139   -1.7113    1.6369 C.2     1  LIG1        0.2663
     29 O          -1.9729   -1.4008    2.7205 O.2     1  LIG1       -0.2684
     30 C          -3.7115   -1.2181    1.1346 C.ar    1  LIG1        0.1678
     31 C          -4.5977   -0.3319    1.8012 C.ar    1  LIG1        0.0125
     32 C          -5.5288   -0.0051    0.8470 C.ar    1  LIG1        0.1350
     33 C          -6.5903    1.0140    0.7724 C.3     1  LIG1       -0.0037
     34 O          -5.3220   -0.7669   -0.2591 O.2     1  LIG1       -0.3592
     35 N          -4.1830   -1.5396   -0.0803 N.ar    1  LIG1       -0.0734
     36 C          -0.0237   -4.0421   -0.1536 C.3     1  LIG1       -0.0213
     37 C           0.0082   -3.4094   -1.5475 C.3     1  LIG1       -0.0606
     38 C           1.2132   -4.9303    0.0397 C.3     1  LIG1       -0.0606
     39 C           4.5022   -1.3152    1.5862 C.3     1  LIG1       -0.0162
     40 C           4.6504   -1.4114    3.1035 C.ar    1  LIG1       -0.0465
     41 C           5.0452   -2.6136    3.7304 C.ar    1  LIG1       -0.0558
     42 C           5.2086   -2.6832    5.1225 C.ar    1  LIG1       -0.0262
     43 C           4.9900   -1.5510    5.8946 C.ar    1  LIG1        0.1234
     44 F           5.1464   -1.6119    7.2245 F       1  LIG1       -0.2055
     45 C           4.6178   -0.3526    5.3000 C.ar    1  LIG1       -0.0262
     46 C           4.4557   -0.2812    3.9106 C.ar    1  LIG1       -0.0558
     47 H           2.2969    6.7715   -6.0333 H       1  LIG1        0.0262
     48 H           2.0690    5.1978   -5.2337 H       1  LIG1        0.0262
     49 H           3.3230    5.3759   -6.4482 H       1  LIG1        0.0262
     50 H           3.3401    6.8720   -3.7606 H       1  LIG1        0.0695
     51 H           4.6095    6.9033   -4.9881 H       1  LIG1        0.0695
     52 H           4.8743    2.6788   -3.4947 H       1  LIG1        0.0686
     53 H           1.9545    2.6193   -2.4831 H       1  LIG1        0.0593
     54 H           2.4282   -1.2100   -3.3175 H       1  LIG1        0.0293
     55 H           2.5781   -0.0117   -4.5735 H       1  LIG1        0.0293
     56 H          -0.5379   -1.8011   -4.4783 H       1  LIG1        0.0288
     57 H           1.0648   -1.7001   -5.2134 H       1  LIG1        0.0288
     58 H          -1.0562   -0.6534   -6.5351 H       1  LIG1        0.0462
     59 H           0.4826    0.2525   -6.4940 H       1  LIG1        0.0462
     60 H          -1.5769    1.5349   -5.4532 H       1  LIG1        0.1487
     61 H           2.6829    1.1881   -0.5575 H       1  LIG1        0.1493
     62 H           2.8569    0.1373    1.3906 H       1  LIG1        0.0401
     63 H           2.0327   -1.9637    2.5583 H       1  LIG1        0.0350
     64 H           2.3983   -2.8579    1.1087 H       1  LIG1        0.0350
     65 H          -2.2100   -2.6834   -0.1381 H       1  LIG1        0.1498
     66 H          -4.4954    0.0919    2.7881 H       1  LIG1        0.0676
     67 H          -6.3160    1.8827    1.3810 H       1  LIG1        0.0309
     68 H          -7.5455    0.6258    1.1345 H       1  LIG1        0.0309
     69 H          -6.7194    1.3644   -0.2569 H       1  LIG1        0.0309
     70 H          -0.8604   -4.7590   -0.1661 H       1  LIG1        0.0317
     71 H          -1.0087   -3.2111   -1.9022 H       1  LIG1        0.0233
     72 H           0.4759   -4.0698   -2.2846 H       1  LIG1        0.0233
     73 H           0.5638   -2.4709   -1.5413 H       1  LIG1        0.0233
     74 H           2.1358   -4.3900    0.2139 H       1  LIG1        0.0233
     75 H           1.4112   -5.5157   -0.8671 H       1  LIG1        0.0233
     76 H           1.0713   -5.6435    0.8571 H       1  LIG1        0.0233
     77 H           5.2886   -0.6392    1.2256 H       1  LIG1        0.0321
     78 H           4.7520   -2.2980    1.1608 H       1  LIG1        0.0321
     79 H           5.2405   -3.5118    3.1471 H       1  LIG1        0.0621
     80 H           5.5079   -3.6072    5.6105 H       1  LIG1        0.0646
     81 H           4.4588    0.5233    5.9212 H       1  LIG1        0.0646
     82 H           4.1867    0.6724    3.4646 H       1  LIG1        0.0621
@<TRIPOS>BOND
     1     1     2    1
     2     2     3    1
     3     3     4    1
     4     4     5    2
     5     4     6    1
     6     6     7    2
     7     8    10    1
     8    11    13    1
     9    13    14    1
    10    14    15    1
    11    15    16   am
    12    11    16    1
    13    16    17    2
    14     8    18    1
    15    18    19   am
    16    19    20    2
    17    19    21    1
    18    21    22    1
    19    22    23    1
    20    23    24    2
    21    23    25    1
    22    25    26    1
    23    25    27    1
    24    27    28   am
    25    28    29    2
    26    28    30    1
    27    30    31   ar
    28    31    32   ar
    29    32    33    1
    30    32    34   ar
    31    34    35   ar
    32    30    35   ar
    33    25    36    1
    34    36    37    1
    35    36    38    1
    36    21    39    1
    37    39    40    1
    38    40    41   ar
    39    41    42   ar
    40    42    43   ar
    41    43    44    1
    42    43    45   ar
    43    45    46   ar
    44    40    46   ar
    45     8     9    1
    46     8     7    1
    47    11    12    1
    48    11    10    1
    49     1    47    1
    50     1    48    1
    51     1    49    1
    52     2    50    1
    53     2    51    1
    54     6    52    1
    55     7    53    1
    56    10    54    1
    57    10    55    1
    58    13    56    1
    59    13    57    1
    60    14    58    1
    61    14    59    1
    62    15    60    1
    63    18    61    1
    64    21    62    1
    65    22    63    1
    66    22    64    1
    67    27    65    1
    68    31    66    1
    69    33    67    1
    70    33    68    1
    71    33    69    1
    72    36    70    1
    73    37    71    1
    74    37    72    1
    75    37    73    1
    76    38    74    1
    77    38    75    1
    78    38    76    1
    79    39    77    1
    80    39    78    1
    81    41    79    1
    82    42    80    1
    83    45    81    1
    84    46    82    1
@<TRIPOS>MOLECULE
*****
 85 86 0 0 0
SMALL
GASTEIGER

@<TRIPOS>ATOM
      1 C           7.6057    4.3937    1.9708 C.3     1  LIG1       -0.0306
      2 C           8.6293    4.2736    3.0864 C.3     1  LIG1        0.0900
      3 O           9.9157    4.6218    2.5680 O.3     1  LIG1       -0.4618
      4 C          10.5580    3.6112    1.9338 C.2     1  LIG1        0.3317
      5 O          10.2560    2.4316    1.9295 O.2     1  LIG1       -0.2456
      6 C          11.6201    4.2144    1.1124 C.2     1  LIG1        0.0203
      7 C          12.5621    3.4411    0.5567 C.2     1  LIG1       -0.0572
      8 C          13.3878    3.9067   -0.6090 C.3     1  LIG1        0.0427
      9 H          12.8239    4.6443   -1.1894 H       1  LIG1        0.0543
     10 C          13.7094    2.6880   -1.5073 C.3     1  LIG1       -0.0197
     11 C          12.4630    1.9645   -2.0439 C.3     1  LIG1        0.0389
     12 H          11.8028    1.6368   -1.2350 H       1  LIG1        0.0395
     13 C          12.8072    0.7432   -2.9153 C.3     1  LIG1       -0.0262
     14 C          12.7379    1.2710   -4.3333 C.3     1  LIG1        0.0123
     15 N          11.7240    2.2720   -4.2558 N.am    1  LIG1       -0.3151
     16 C          11.6740    2.8394   -3.0021 C.2     1  LIG1        0.2162
     17 O          11.1229    3.8941   -2.7458 O.2     1  LIG1       -0.2755
     18 N          14.5870    4.5759   -0.1288 N.am    1  LIG1       -0.3075
     19 C          14.6476    5.9376    0.1438 C.2     1  LIG1        0.2338
     20 O          13.6621    6.6708    0.0844 O.2     1  LIG1       -0.2738
     21 C          16.0568    6.4571    0.5944 C.3     1  LIG1        0.0996
     22 H          16.3077    5.9437    1.5297 H       1  LIG1        0.0594
     23 C          16.0186    7.9952    0.8528 C.3     1  LIG1       -0.0236
     24 C          17.3052    8.6479    1.4251 C.3     1  LIG1       -0.0446
     25 C          18.4849    8.5603    0.4609 C.3     1  LIG1       -0.0626
     26 C          17.0772   10.1352    1.7546 C.3     1  LIG1       -0.0626
     27 N          17.0356    6.0753   -0.4386 N.am    1  LIG1       -0.3025
     28 C          17.6909    4.8605   -0.4724 C.2     1  LIG1        0.2343
     29 O          17.4609    3.9718    0.3463 O.2     1  LIG1       -0.2738
     30 C          18.6532    4.6706   -1.6835 C.3     1  LIG1        0.1048
     31 H          18.7426    5.6439   -2.1789 H       1  LIG1        0.0598
     32 N          19.9991    4.3007   -1.2704 N.am    1  LIG1       -0.2696
     33 C          20.9449    5.2685   -0.9958 C.2     1  LIG1        0.4012
     34 O          20.8988    6.4078   -1.3833 O.2     1  LIG1       -0.2265
     35 O          21.8857    4.7557   -0.1386 O.3     1  LIG1       -0.4456
     36 C          22.5548    5.7639    0.6360 C.3     1  LIG1        0.1191
     37 C          21.6588    6.2349    1.7603 C.ar    1  LIG1       -0.0103
     38 C          21.7161    7.5579    2.2160 C.ar    1  LIG1       -0.0554
     39 C          20.9664    7.9503    3.3268 C.ar    1  LIG1       -0.0614
     40 C          20.1511    7.0286    3.9837 C.ar    1  LIG1       -0.0617
     41 C          20.0502    5.7240    3.5097 C.ar    1  LIG1       -0.0614
     42 C          20.7999    5.3303    2.4052 C.ar    1  LIG1       -0.0554
     43 C          18.0604    3.6776   -2.7245 C.3     1  LIG1       -0.0196
     44 C          17.7428    2.2577   -2.2299 C.3     1  LIG1       -0.0605
     45 C          16.7715    4.2347   -3.3393 C.3     1  LIG1       -0.0605
     46 H           6.5957    4.2198    2.3479 H       1  LIG1        0.0262
     47 H           7.8117    3.6686    1.1759 H       1  LIG1        0.0262
     48 H           7.6506    5.3855    1.5070 H       1  LIG1        0.0262
     49 H           8.6295    3.2687    3.5231 H       1  LIG1        0.0695
     50 H           8.3974    4.9791    3.8901 H       1  LIG1        0.0695
     51 H          11.5212    5.2635    0.8617 H       1  LIG1        0.0686
     52 H          12.5913    2.3815    0.8107 H       1  LIG1        0.0593
     53 H          14.3193    1.9714   -0.9380 H       1  LIG1        0.0293
     54 H          14.3226    3.0054   -2.3528 H       1  LIG1        0.0293
     55 H          12.0325   -0.0225   -2.7748 H       1  LIG1        0.0288
     56 H          13.7714    0.2818   -2.6822 H       1  LIG1        0.0288
     57 H          12.4733    0.5115   -5.0717 H       1  LIG1        0.0462
     58 H          13.6718    1.7644   -4.6216 H       1  LIG1        0.0462
     59 H          11.3322    2.7772   -5.0413 H       1  LIG1        0.1487
     60 H          15.4407    4.0392   -0.0097 H       1  LIG1        0.1493
     61 H          15.2026    8.2033    1.5607 H       1  LIG1        0.0290
     62 H          15.7467    8.5131   -0.0770 H       1  LIG1        0.0290
     63 H          17.5770    8.1403    2.3586 H       1  LIG1        0.0296
     64 H          18.2319    9.0105   -0.5051 H       1  LIG1        0.0232
     65 H          18.7990    7.5288    0.3059 H       1  LIG1        0.0232
     66 H          19.3617    9.0785    0.8580 H       1  LIG1        0.0232
     67 H          16.5146   10.6453    0.9650 H       1  LIG1        0.0232
     68 H          18.0305   10.6665    1.8716 H       1  LIG1        0.0232
     69 H          16.5278   10.2524    2.6942 H       1  LIG1        0.0232
     70 H          17.3754    6.8150   -1.0415 H       1  LIG1        0.1495
     71 H          20.1463    3.4287   -0.7641 H       1  LIG1        0.1528
     72 H          22.9084    6.5906    0.0090 H       1  LIG1        0.0749
     73 H          23.4440    5.3033    1.0888 H       1  LIG1        0.0749
     74 H          22.3464    8.2893    1.7144 H       1  LIG1        0.0621
     75 H          21.0288    8.9730    3.6896 H       1  LIG1        0.0618
     76 H          19.5982    7.3245    4.8706 H       1  LIG1        0.0618
     77 H          19.4076    5.0034    4.0083 H       1  LIG1        0.0618
     78 H          20.7172    4.3042    2.0532 H       1  LIG1        0.0621
     79 H          18.7982    3.5847   -3.5318 H       1  LIG1        0.0318
     80 H          16.9170    2.2509   -1.5104 H       1  LIG1        0.0233
     81 H          18.6029    1.7586   -1.7772 H       1  LIG1        0.0233
     82 H          17.4136    1.6402   -3.0770 H       1  LIG1        0.0233
     83 H          15.9573    4.1999   -2.6145 H       1  LIG1        0.0233
     84 H          16.4693    3.6351   -4.2051 H       1  LIG1        0.0233
     85 H          16.8778    5.2735   -3.6592 H       1  LIG1        0.0233
@<TRIPOS>BOND
     1     1     2    1
     2     2     3    1
     3     3     4    1
     4     4     5    2
     5     4     6    1
     6     6     7    2
     7     8    10    1
     8    11    13    1
     9    13    14    1
    10    14    15    1
    11    15    16   am
    12    11    16    1
    13    16    17    2
    14     8    18    1
    15    18    19   am
    16    19    20    2
    17    21    23    1
    18    23    24    1
    19    24    25    1
    20    24    26    1
    21    21    27    1
    22    27    28   am
    23    28    29    2
    24    28    30    1
    25    30    31    1
    26    30    32    1
    27    32    33   am
    28    33    34    2
    29    33    35    1
    30    35    36    1
    31    36    37    1
    32    37    38   ar
    33    38    39   ar
    34    39    40   ar
    35    40    41   ar
    36    41    42   ar
    37    37    42   ar
    38    30    43    1
    39    43    44    1
    40    43    45    1
    41    21    22    1
    42    21    19    1
    43    11    12    1
    44    11    10    1
    45     8     9    1
    46     8     7    1
    47     1    46    1
    48     1    47    1
    49     1    48    1
    50     2    49    1
    51     2    50    1
    52     6    51    1
    53     7    52    1
    54    10    53    1
    55    10    54    1
    56    13    55    1
    57    13    56    1
    58    14    57    1
    59    14    58    1
    60    15    59    1
    61    18    60    1
    62    23    61    1
    63    23    62    1
    64    24    63    1
    65    25    64    1
    66    25    65    1
    67    25    66    1
    68    26    67    1
    69    26    68    1
    70    26    69    1
    71    27    70    1
    72    32    71    1
    73    36    72    1
    74    36    73    1
    75    38    74    1
    76    39    75    1
    77    40    76    1
    78    41    77    1
    79    42    78    1
    80    43    79    1
    81    44    80    1
    82    44    81    1
    83    44    82    1
    84    45    83    1
    85    45    84    1
    86    45    85    1
@<TRIPOS>MOLECULE
*****
 95 96 0 0 0
SMALL
GASTEIGER

@<TRIPOS>ATOM
      1 C          -0.3157    0.2116    9.1496 C.3     1  LIG1       -0.0306
      2 C           0.9925   -0.4351    8.7438 C.3     1  LIG1        0.0900
      3 O           0.7949   -1.5324    7.8461 O.3     1  LIG1       -0.4618
      4 C           1.3056   -1.3645    6.6045 C.2     1  LIG1        0.3317
      5 O           1.5981   -0.3051    6.0657 O.2     1  LIG1       -0.2456
      6 C           1.6034   -2.6987    6.0542 C.2     1  LIG1        0.0203
      7 C           2.0621   -2.8474    4.7992 C.2     1  LIG1       -0.0572
      8 C           2.3720   -4.1807    4.1747 C.3     1  LIG1        0.0427
      9 H           1.7388   -4.9683    4.6002 H       1  LIG1        0.0543
     10 C           3.8717   -4.5449    4.3465 C.3     1  LIG1       -0.0197
     11 C           4.3616   -4.6214    5.8048 C.3     1  LIG1        0.0389
     12 H           4.1780   -3.6928    6.3519 H       1  LIG1        0.0395
     13 C           5.8590   -4.9613    5.9143 C.3     1  LIG1       -0.0262
     14 C           5.8924   -6.4760    5.9749 C.3     1  LIG1        0.0123
     15 N           4.6660   -6.7995    6.6330 N.am    1  LIG1       -0.3151
     16 C           3.7302   -5.7937    6.5314 C.2     1  LIG1        0.2162
     17 O           2.5772   -5.8737    6.9108 O.2     1  LIG1       -0.2755
     18 N           2.0404   -4.0878    2.7450 N.am    1  LIG1       -0.3075
     19 C           0.7595   -3.8745    2.2550 C.2     1  LIG1        0.2338
     20 O          -0.2197   -3.6712    2.9716 O.2     1  LIG1       -0.2738
     21 C           0.6490   -3.8506    0.7013 C.3     1  LIG1        0.0996
     22 H           1.3585   -4.5768    0.3051 H       1  LIG1        0.0594
     23 C           0.9112   -2.4431    0.1196 C.3     1  LIG1       -0.0236
     24 C           2.3950   -2.0123    0.1201 C.3     1  LIG1       -0.0446
     25 C           3.2595   -2.9738   -0.6980 C.3     1  LIG1       -0.0626
     26 C           2.5702   -0.5939   -0.4389 C.3     1  LIG1       -0.0626
     27 N          -0.6924   -4.3053    0.3193 N.am    1  LIG1       -0.3024
     28 C          -0.9173   -5.4709   -0.4006 C.2     1  LIG1        0.2366
     29 O          -0.0128   -6.1649   -0.8573 O.2     1  LIG1       -0.2737
     30 C          -2.4148   -5.8597   -0.5214 C.3     1  LIG1        0.1282
     31 H          -2.9875   -5.0728   -0.0162 H       1  LIG1        0.0622
     32 N          -2.8717   -5.9277   -1.8966 N.am    1  LIG1       -0.2673
     33 C          -3.8414   -5.1247   -2.4442 C.2     1  LIG1        0.4013
     34 O          -4.1660   -5.1535   -3.6057 O.2     1  LIG1       -0.2265
     35 O          -4.2944   -4.2539   -1.4887 O.3     1  LIG1       -0.4456
     36 C          -4.9706   -3.0864   -1.9402 C.3     1  LIG1        0.1191
     37 C          -4.0340   -1.9111   -1.7652 C.ar    1  LIG1       -0.0103
     38 C          -3.1438   -1.5609   -2.7907 C.ar    1  LIG1       -0.0554
     39 C          -2.3082   -0.4482   -2.6594 C.ar    1  LIG1       -0.0614
     40 C          -2.3388    0.3171   -1.4956 C.ar    1  LIG1       -0.0617
     41 C          -3.1946   -0.0390   -0.4555 C.ar    1  LIG1       -0.0614
     42 C          -4.0310   -1.1526   -0.5844 C.ar    1  LIG1       -0.0554
     43 C          -2.6726   -7.1549    0.2918 C.3     1  LIG1        0.0834
     44 C          -2.2699   -6.8532    1.7382 C.3     1  LIG1       -0.0364
     45 O          -4.0769   -7.5280    0.2139 O.3     1  LIG1       -0.3689
     46 C          -4.5050   -8.7921    0.7727 C.3     1  LIG1        0.0616
     47 C          -3.6894   -9.9569    0.2059 C.3     1  LIG1       -0.0363
     48 C          -4.4757   -8.7968    2.3074 C.3     1  LIG1       -0.0363
     49 C          -5.9825   -9.0257    0.3741 C.3     1  LIG1       -0.0363
     50 H          -0.1251    1.0189    9.8646 H       1  LIG1        0.0262
     51 H          -0.9902   -0.5127    9.6169 H       1  LIG1        0.0262
     52 H          -0.8335    0.6295    8.2813 H       1  LIG1        0.0262
     53 H           1.4807   -0.8553    9.6284 H       1  LIG1        0.0695
     54 H           1.6719    0.3171    8.3304 H       1  LIG1        0.0695
     55 H           1.4933   -3.5377    6.7336 H       1  LIG1        0.0686
     56 H           2.1750   -1.9674    4.1695 H       1  LIG1        0.0593
     57 H           4.4848   -3.8062    3.8117 H       1  LIG1        0.0293
     58 H           4.0559   -5.5056    3.8455 H       1  LIG1        0.0293
     59 H           6.2475   -4.5551    6.8588 H       1  LIG1        0.0288
     60 H           6.4693   -4.5517    5.1046 H       1  LIG1        0.0288
     61 H           6.7409   -6.8651    6.5426 H       1  LIG1        0.0462
     62 H           5.8737   -6.9247    4.9774 H       1  LIG1        0.0462
     63 H           4.4078   -7.7073    7.0017 H       1  LIG1        0.1487
     64 H           2.7134   -4.4726    2.0950 H       1  LIG1        0.1493
     65 H           0.3143   -1.6972    0.6637 H       1  LIG1        0.0290
     66 H           0.5451   -2.4164   -0.9171 H       1  LIG1        0.0290
     67 H           2.7641   -2.0013    1.1516 H       1  LIG1        0.0296
     68 H           2.9227   -3.0128   -1.7395 H       1  LIG1        0.0232
     69 H           3.2360   -3.9884   -0.2941 H       1  LIG1        0.0232
     70 H           4.3074   -2.6588   -0.6877 H       1  LIG1        0.0232
     71 H           2.1012   -0.4855   -1.4228 H       1  LIG1        0.0232
     72 H           3.6340   -0.3509   -0.5503 H       1  LIG1        0.0232
     73 H           2.1338    0.1528    0.2323 H       1  LIG1        0.0232
     74 H          -1.4464   -3.9459    0.8991 H       1  LIG1        0.1495
     75 H          -2.3658   -6.5135   -2.5809 H       1  LIG1        0.1529
     76 H          -5.8527   -2.9519   -1.3033 H       1  LIG1        0.0749
     77 H          -5.3247   -3.1582   -2.9699 H       1  LIG1        0.0749
     78 H          -3.1102   -2.1455   -3.7083 H       1  LIG1        0.0621
     79 H          -1.6429   -0.1707   -3.4729 H       1  LIG1        0.0618
     80 H          -1.6998    1.1917   -1.4011 H       1  LIG1        0.0618
     81 H          -3.2200    0.5598    0.4520 H       1  LIG1        0.0618
     82 H          -4.6939   -1.4106    0.2388 H       1  LIG1        0.0621
     83 H          -2.0483   -7.9474   -0.1347 H       1  LIG1        0.0617
     84 H          -3.0905   -6.3502    2.2615 H       1  LIG1        0.0255
     85 H          -1.3789   -6.2367    1.8421 H       1  LIG1        0.0255
     86 H          -1.9849   -7.7660    2.2547 H       1  LIG1        0.0255
     87 H          -2.6259   -9.8570    0.4345 H       1  LIG1        0.0257
     88 H          -3.7870  -10.0006   -0.8849 H       1  LIG1        0.0257
     89 H          -4.0200  -10.9135    0.6240 H       1  LIG1        0.0257
     90 H          -3.4753   -8.7179    2.7145 H       1  LIG1        0.0257
     91 H          -4.8556   -9.7346    2.7210 H       1  LIG1        0.0257
     92 H          -5.0512   -7.9571    2.7150 H       1  LIG1        0.0257
     93 H          -6.1643   -8.8089   -0.6833 H       1  LIG1        0.0257
     94 H          -6.6644   -8.3891    0.9515 H       1  LIG1        0.0257
     95 H          -6.2802  -10.0655    0.5670 H       1  LIG1        0.0257
@<TRIPOS>BOND
     1     1     2    1
     2     2     3    1
     3     3     4    1
     4     4     5    2
     5     4     6    1
     6     6     7    2
     7     8    10    1
     8    11    13    1
     9    13    14    1
    10    14    15    1
    11    15    16   am
    12    11    16    1
    13    16    17    2
    14     8    18    1
    15    18    19   am
    16    19    20    2
    17    21    23    1
    18    23    24    1
    19    24    25    1
    20    24    26    1
    21    21    27    1
    22    27    28   am
    23    28    29    2
    24    28    30    1
    25    30    31    1
    26    30    32    1
    27    32    33   am
    28    33    34    2
    29    33    35    1
    30    35    36    1
    31    36    37    1
    32    37    38   ar
    33    38    39   ar
    34    39    40   ar
    35    40    41   ar
    36    41    42   ar
    37    37    42   ar
    38    30    43    1
    39    43    44    1
    40    43    45    1
    41    45    46    1
    42    46    47    1
    43    46    48    1
    44    46    49    1
    45     8     9    1
    46     8     7    1
    47    11    12    1
    48    11    10    1
    49    21    22    1
    50    21    19    1
    51     1    50    1
    52     1    51    1
    53     1    52    1
    54     2    53    1
    55     2    54    1
    56     6    55    1
    57     7    56    1
    58    10    57    1
    59    10    58    1
    60    13    59    1
    61    13    60    1
    62    14    61    1
    63    14    62    1
    64    15    63    1
    65    18    64    1
    66    23    65    1
    67    23    66    1
    68    24    67    1
    69    25    68    1
    70    25    69    1
    71    25    70    1
    72    26    71    1
    73    26    72    1
    74    26    73    1
    75    27    74    1
    76    32    75    1
    77    36    76    1
    78    36    77    1
    79    38    78    1
    80    39    79    1
    81    40    80    1
    82    41    81    1
    83    42    82    1
    84    43    83    1
    85    44    84    1
    86    44    85    1
    87    44    86    1
    88    47    87    1
    89    47    88    1
    90    47    89    1
    91    48    90    1
    92    48    91    1
    93    48    92    1
    94    49    93    1
    95    49    94    1
    96    49    95    1
@<TRIPOS>MOLECULE
*****
 95 95 0 0 0
SMALL
GASTEIGER

@<TRIPOS>ATOM
      1 C          12.3876    2.2135   10.3081 C.3     1  LIG1       -0.0306
      2 C          11.0495    2.3781   11.0149 C.3     1  LIG1        0.0900
      3 O          10.1848    1.3131   10.5990 O.3     1  LIG1       -0.4618
      4 C           9.5932    1.4984    9.3887 C.2     1  LIG1        0.3317
      5 O           9.4224    2.5610    8.8159 O.2     1  LIG1       -0.2456
      6 C           9.5287    0.1972    8.6900 C.2     1  LIG1        0.0203
      7 C           9.3413   -0.9594    9.3421 C.2     1  LIG1       -0.0572
      8 C           9.6176   -2.3604    8.8639 C.3     1  LIG1        0.0427
      9 H           8.8746   -3.0147    9.3289 H       1  LIG1        0.0543
     10 C          11.0453   -2.7879    9.2304 C.3     1  LIG1       -0.0197
     11 C          11.3601   -2.7237   10.7188 C.3     1  LIG1        0.0389
     12 H          11.2091   -1.7172   11.1207 H       1  LIG1        0.0395
     13 C          12.7976   -3.1682   11.0132 C.3     1  LIG1       -0.0262
     14 C          12.6763   -4.6054   11.4780 C.3     1  LIG1        0.0123
     15 N          11.3419   -4.7042   11.9743 N.am    1  LIG1       -0.3151
     16 C          10.5217   -3.7086   11.5028 C.2     1  LIG1        0.2162
     17 O           9.3176   -3.6563   11.6713 O.2     1  LIG1       -0.2755
     18 N           9.4933   -2.5091    7.4297 N.am    1  LIG1       -0.3075
     19 C           9.0258   -3.6929    6.8980 C.2     1  LIG1        0.2338
     20 O           8.6556   -4.6320    7.6025 O.2     1  LIG1       -0.2738
     21 C           8.9698   -3.7682    5.3655 C.3     1  LIG1        0.0996
     22 H           9.8443   -3.2598    4.9392 H       1  LIG1        0.0594
     23 C           7.6678   -3.2504    4.7457 C.3     1  LIG1       -0.0236
     24 C           7.3218   -1.7524    4.8213 C.3     1  LIG1       -0.0446
     25 C           5.9947   -1.5274    4.0939 C.3     1  LIG1       -0.0626
     26 C           7.1386   -1.1865    6.2210 C.3     1  LIG1       -0.0626
     27 N           9.0449   -5.2109    5.0616 N.am    1  LIG1       -0.3025
     28 C           9.7071   -5.7042    3.9724 C.2     1  LIG1        0.2342
     29 O          10.2006   -4.9336    3.1539 O.2     1  LIG1       -0.2738
     30 C           9.6134   -7.2437    3.7801 C.3     1  LIG1        0.1017
     31 H           9.5157   -7.7029    4.7733 H       1  LIG1        0.0597
     32 N           8.3777   -7.5157    3.0233 N.am    1  LIG1       -0.3022
     33 C           7.1972   -7.9397    3.6294 C.2     1  LIG1        0.2363
     34 O           7.1071   -8.1337    4.8385 O.2     1  LIG1       -0.2737
     35 CA          5.9745   -8.0328    2.6782 C.3     1  LIG1        0.1253
     36 HA          6.3696   -8.2459    1.6766 H       1  LIG1        0.0619
     37 C           5.2543   -6.6799    2.6584 C.3     1  LIG1        0.0712
     38 O           6.1340   -5.6269    2.2788 O.3     1  LIG1       -0.3927
     39 N           5.0543   -9.0969    3.0187 N.am    1  LIG1       -0.2676
     40 C           4.2757   -9.8146    2.1582 C.2     1  LIG1        0.4014
     41 O           3.5079  -10.6628    2.5496 O.2     1  LIG1       -0.2264
     42 O           4.5295   -9.4554    0.8551 O.3     1  LIG1       -0.4447
     43 C           3.9714  -10.2617   -0.2195 C.3     1  LIG1        0.1068
     44 C           2.4414  -10.1918   -0.2243 C.3     1  LIG1       -0.0253
     45 C           4.5009   -9.6929   -1.5586 C.3     1  LIG1       -0.0253
     46 C           4.4858  -11.6974   -0.0939 C.3     1  LIG1       -0.0253
     47 C          10.9059   -7.8238    3.1285 C.3     1  LIG1       -0.0197
     48 C          10.8404   -9.3505    2.9846 C.3     1  LIG1       -0.0605
     49 C          11.2945   -7.2389    1.7651 C.3     1  LIG1       -0.0605
     50 H          13.0856    3.0059   10.5878 H       1  LIG1        0.0262
     51 H          12.2621    2.2256    9.2198 H       1  LIG1        0.0262
     52 H          12.8331    1.2435   10.5567 H       1  LIG1        0.0262
     53 H          10.6057    3.3600   10.8198 H       1  LIG1        0.0695
     54 H          11.1912    2.2856   12.0967 H       1  LIG1        0.0695
     55 H           9.8029    0.2608    7.6473 H       1  LIG1        0.0686
     56 H           9.0447   -0.9155   10.3940 H       1  LIG1        0.0593
     57 H          11.7544   -2.1419    8.6900 H       1  LIG1        0.0293
     58 H          11.2166   -3.8030    8.8490 H       1  LIG1        0.0293
     59 H          13.2008   -2.5489   11.8230 H       1  LIG1        0.0288
     60 H          13.4756   -3.0658   10.1591 H       1  LIG1        0.0288
     61 H          13.3839   -4.8467   12.2749 H       1  LIG1        0.0462
     62 H          12.7916   -5.3159   10.6543 H       1  LIG1        0.0462
     63 H          10.9375   -5.5145   12.4282 H       1  LIG1        0.1487
     64 H           9.9110   -1.8177    6.8206 H       1  LIG1        0.1493
     65 H           6.8341   -3.8356    5.1555 H       1  LIG1        0.0290
     66 H           7.7049   -3.5089    3.6757 H       1  LIG1        0.0290
     67 H           8.1088   -1.1837    4.3103 H       1  LIG1        0.0296
     68 H           5.1942   -2.1047    4.5724 H       1  LIG1        0.0232
     69 H           6.0593   -1.8303    3.0461 H       1  LIG1        0.0232
     70 H           5.7114   -0.4705    4.1294 H       1  LIG1        0.0232
     71 H           6.5098   -1.8264    6.8478 H       1  LIG1        0.0232
     72 H           6.7205   -0.1762    6.2050 H       1  LIG1        0.0232
     73 H           8.0915   -1.0395    6.6951 H       1  LIG1        0.0232
     74 H           8.4157   -5.8227    5.5804 H       1  LIG1        0.1495
     75 H           8.3097   -7.0808    2.1074 H       1  LIG1        0.1495
     76 H1          4.8117   -6.4446    3.6347 H       1  LIG1        0.0580
     77 H2          4.4317   -6.7009    1.9336 H       1  LIG1        0.0580
     78 H           6.7830   -5.5167    2.9978 H       1  LIG1        0.2095
     79 H           4.8281   -9.2648    4.0163 H       1  LIG1        0.1529
     80 H           2.0163  -10.4175    0.7559 H       1  LIG1        0.0268
     81 H           2.0121  -10.8984   -0.9416 H       1  LIG1        0.0268
     82 H           2.0918   -9.1842   -0.4776 H       1  LIG1        0.0268
     83 H           4.0863   -8.7021   -1.7787 H       1  LIG1        0.0268
     84 H           4.2452  -10.3509   -2.3992 H       1  LIG1        0.0268
     85 H           5.5908   -9.5755   -1.5418 H       1  LIG1        0.0268
     86 H           4.1391  -12.1722    0.8266 H       1  LIG1        0.0268
     87 H           5.5815  -11.7077   -0.0573 H       1  LIG1        0.0268
     88 H           4.1533  -12.3209   -0.9290 H       1  LIG1        0.0268
     89 H          11.7360   -7.5994    3.8149 H       1  LIG1        0.0318
     90 H          10.0162   -9.6508    2.3295 H       1  LIG1        0.0233
     91 H          10.7081   -9.8391    3.9544 H       1  LIG1        0.0233
     92 H          11.7669   -9.7386    2.5429 H       1  LIG1        0.0233
     93 H          10.5957   -7.5473    0.9834 H       1  LIG1        0.0233
     94 H          12.2983   -7.5785    1.4832 H       1  LIG1        0.0233
     95 H          11.3528   -6.1517    1.7575 H       1  LIG1        0.0233
@<TRIPOS>BOND
     1     1     2    1
     2     2     3    1
     3     3     4    1
     4     4     5    2
     5     4     6    1
     6     6     7    2
     7     8    10    1
     8    11    13    1
     9    13    14    1
    10    14    15    1
    11    15    16   am
    12    11    16    1
    13    16    17    2
    14     8    18    1
    15    18    19   am
    16    19    20    2
    17    21    23    1
    18    23    24    1
    19    24    25    1
    20    24    26    1
    21    21    27    1
    22    27    28   am
    23    28    29    2
    24    28    30    1
    25    30    31    1
    26    30    32    1
    27    32    33   am
    28    33    34    2
    29    35    37    1
    30    37    38    1
    31    35    39    1
    32    39    40   am
    33    40    41    2
    34    40    42    1
    35    42    43    1
    36    43    44    1
    37    43    45    1
    38    43    46    1
    39    30    47    1
    40    47    48    1
    41    47    49    1
    42    35    36    1
    43    35    33    1
    44    11    12    1
    45    11    10    1
    46    21    22    1
    47    21    19    1
    48     8     9    1
    49     8     7    1
    50     1    50    1
    51     1    51    1
    52     1    52    1
    53     2    53    1
    54     2    54    1
    55     6    55    1
    56     7    56    1
    57    10    57    1
    58    10    58    1
    59    13    59    1
    60    13    60    1
    61    14    61    1
    62    14    62    1
    63    15    63    1
    64    18    64    1
    65    23    65    1
    66    23    66    1
    67    24    67    1
    68    25    68    1
    69    25    69    1
    70    25    70    1
    71    26    71    1
    72    26    72    1
    73    26    73    1
    74    27    74    1
    75    32    75    1
    76    37    76    1
    77    37    77    1
    78    38    78    1
    79    39    79    1
    80    44    80    1
    81    44    81    1
    82    44    82    1
    83    45    83    1
    84    45    84    1
    85    45    85    1
    86    46    86    1
    87    46    87    1
    88    46    88    1
    89    47    89    1
    90    48    90    1
    91    48    91    1
    92    48    92    1
    93    49    93    1
    94    49    94    1
    95    49    95    1
@<TRIPOS>MOLECULE
*****
 96 97 0 0 0
SMALL
GASTEIGER

@<TRIPOS>ATOM
      1 C          10.7853   -6.0127    4.9570 C.3     1  LIG1       -0.0306
      2 C           9.2847   -5.9563    5.2114 C.3     1  LIG1        0.0900
      3 O           8.6110   -6.2882    3.9938 O.3     1  LIG1       -0.4618
      4 C           8.4357   -5.2122    3.1861 C.2     1  LIG1        0.3317
      5 O           7.9864   -4.1257    3.5028 O.2     1  LIG1       -0.2456
      6 C           9.1584   -5.5096    1.9371 C.2     1  LIG1        0.0203
      7 C           9.8010   -4.5262    1.2834 C.2     1  LIG1       -0.0572
      8 C          10.6011   -4.7823    0.0373 C.3     1  LIG1        0.0427
      9 H          10.1369   -5.5992   -0.5263 H       1  LIG1        0.0543
     10 C          12.0863   -5.1024    0.3360 C.3     1  LIG1       -0.0197
     11 C          12.3773   -6.3324    1.2099 C.3     1  LIG1        0.0389
     12 H          11.9111   -6.2544    2.1948 H       1  LIG1        0.0395
     13 C          13.8878   -6.5670    1.4161 C.3     1  LIG1       -0.0262
     14 C          14.2747   -7.5997    0.3747 C.3     1  LIG1        0.0123
     15 N          13.0595   -8.3099    0.1368 N.am    1  LIG1       -0.3151
     16 C          11.9432   -7.6164    0.5365 C.2     1  LIG1        0.2162
     17 O          10.7963   -7.9707    0.3311 O.2     1  LIG1       -0.2755
     18 N          10.5329   -3.5785   -0.8004 N.am    1  LIG1       -0.3075
     19 C           9.4975   -3.3194   -1.6868 C.2     1  LIG1        0.2341
     20 O           8.5697   -4.1056   -1.8257 O.2     1  LIG1       -0.2738
     21 C           9.6549   -1.9770   -2.4729 C.3     1  LIG1        0.1034
     22 H           9.6935   -1.1616   -1.7398 H       1  LIG1        0.0598
     23 C           8.5200   -1.6660   -3.5046 C.3     1  LIG1       -0.0007
     24 C           7.0794   -1.5243   -3.0132 C.ar    1  LIG1       -0.0451
     25 C           6.4755   -0.2694   -2.8304 C.ar    1  LIG1       -0.0585
     26 C           5.1516   -0.1627   -2.3693 C.ar    1  LIG1       -0.0615
     27 C           4.4202   -1.3042   -2.0499 C.ar    1  LIG1       -0.0617
     28 C           4.9874   -2.5538   -2.2594 C.ar    1  LIG1       -0.0615
     29 C           6.2821   -2.6570   -2.7807 C.ar    1  LIG1       -0.0585
     30 N          11.0071   -2.0670   -3.1292 N.am    1  LIG1       -0.3022
     31 C          11.8462   -0.9918   -3.3630 C.2     1  LIG1        0.2342
     32 O          11.5498    0.1513   -3.0226 O.2     1  LIG1       -0.2738
     33 C          13.1573   -1.3064   -4.1678 C.3     1  LIG1        0.1017
     34 H          13.1010   -2.3429   -4.5203 H       1  LIG1        0.0597
     35 N          13.1642   -0.4695   -5.3874 N.am    1  LIG1       -0.3022
     36 C          13.8343   -0.8200   -6.5540 C.2     1  LIG1        0.2363
     37 O          14.4372   -1.8862   -6.6631 O.2     1  LIG1       -0.2737
     38 CA         13.6145    0.1528   -7.7464 C.3     1  LIG1        0.1253
     39 HA         13.5067    1.1609   -7.3339 H       1  LIG1        0.0619
     40 C          12.3236   -0.2398   -8.4668 C.3     1  LIG1        0.0712
     41 O          11.1950   -0.2178   -7.6013 O.3     1  LIG1       -0.3927
     42 N          14.7207    0.1562   -8.7121 N.am    1  LIG1       -0.2676
     43 C          15.8317    0.9216   -8.5988 C.2     1  LIG1        0.4014
     44 O          16.7733    0.8293   -9.4025 O.2     1  LIG1       -0.2264
     45 O          15.7932    1.7006   -7.5076 O.3     1  LIG1       -0.4447
     46 C          17.0083    2.1907   -6.8944 C.3     1  LIG1        0.1068
     47 C          17.6359    3.3283   -7.6992 C.3     1  LIG1       -0.0253
     48 C          16.5562    2.7322   -5.5311 C.3     1  LIG1       -0.0253
     49 C          17.9818    1.0316   -6.6496 C.3     1  LIG1       -0.0253
     50 C          14.4797   -1.1472   -3.3603 C.3     1  LIG1       -0.0197
     51 C          14.6819    0.2378   -2.7408 C.3     1  LIG1       -0.0605
     52 C          14.6711   -2.2120   -2.2731 C.3     1  LIG1       -0.0605
     53 H          11.3477   -5.7528    5.8555 H       1  LIG1        0.0262
     54 H          11.0740   -5.3176    4.1614 H       1  LIG1        0.0262
     55 H          11.0869   -7.0123    4.6224 H       1  LIG1        0.0262
     56 H           8.9928   -4.9674    5.5812 H       1  LIG1        0.0695
     57 H           9.0044   -6.6956    5.9671 H       1  LIG1        0.0695
     58 H           9.2397   -6.5536    1.6577 H       1  LIG1        0.0686
     59 H           9.7278   -3.5054    1.6561 H       1  LIG1        0.0593
     60 H          12.5459   -4.2295    0.8191 H       1  LIG1        0.0293
     61 H          12.5932   -5.2232   -0.6299 H       1  LIG1        0.0293
     62 H          14.0506   -6.9906    2.4161 H       1  LIG1        0.0288
     63 H          14.4921   -5.6569    1.3494 H       1  LIG1        0.0288
     64 H          15.0442   -8.2905    0.7296 H       1  LIG1        0.0462
     65 H          14.5959   -7.1391   -0.5640 H       1  LIG1        0.0462
     66 H          12.9657   -9.1620   -0.4040 H       1  LIG1        0.1487
     67 H          11.3586   -3.0012   -0.8862 H       1  LIG1        0.1493
     68 H           8.5290   -2.4209   -4.3015 H       1  LIG1        0.0336
     69 H           8.7815   -0.7255   -4.0123 H       1  LIG1        0.0336
     70 H           7.0167    0.6462   -3.0571 H       1  LIG1        0.0620
     71 H           4.6898    0.8146   -2.2474 H       1  LIG1        0.0618
     72 H           3.4132   -1.2249   -1.6472 H       1  LIG1        0.0618
     73 H           4.4303   -3.4550   -2.0134 H       1  LIG1        0.0618
     74 H           6.6607   -3.6543   -2.9905 H       1  LIG1        0.0620
     75 H          11.2747   -2.9817   -3.4758 H       1  LIG1        0.1495
     76 H          12.6911    0.4312   -5.3347 H       1  LIG1        0.1495
     77 H1         12.4046   -1.2332   -8.9246 H       1  LIG1        0.0580
     78 H2         12.1309    0.4730   -9.2769 H       1  LIG1        0.0580
     79 H          11.3070   -0.9427   -6.9595 H       1  LIG1        0.2095
     80 H          14.7856   -0.5792   -9.4047 H       1  LIG1        0.1529
     81 H          16.9134    4.1368   -7.8608 H       1  LIG1        0.0268
     82 H          17.9622    2.9982   -8.6894 H       1  LIG1        0.0268
     83 H          18.5045    3.7456   -7.1774 H       1  LIG1        0.0268
     84 H          15.9169    3.6152   -5.6458 H       1  LIG1        0.0268
     85 H          17.4052    2.9992   -4.8953 H       1  LIG1        0.0268
     86 H          15.9523    1.9837   -5.0080 H       1  LIG1        0.0268
     87 H          18.4115    0.6552   -7.5829 H       1  LIG1        0.0268
     88 H          17.4595    0.1886   -6.1811 H       1  LIG1        0.0268
     89 H          18.8120    1.3322   -6.0042 H       1  LIG1        0.0268
     90 H          15.3073   -1.2902   -4.0693 H       1  LIG1        0.0318
     91 H          13.9536    0.4444   -1.9512 H       1  LIG1        0.0233
     92 H          14.6061    1.0243   -3.4943 H       1  LIG1        0.0233
     93 H          15.6796    0.3095   -2.2894 H       1  LIG1        0.0233
     94 H          13.9709   -2.0863   -1.4413 H       1  LIG1        0.0233
     95 H          15.6858   -2.1418   -1.8581 H       1  LIG1        0.0233
     96 H          14.5595   -3.2230   -2.6762 H       1  LIG1        0.0233
@<TRIPOS>BOND
     1     1     2    1
     2     2     3    1
     3     3     4    1
     4     4     5    2
     5     4     6    1
     6     6     7    2
     7     8    10    1
     8    11    13    1
     9    13    14    1
    10    14    15    1
    11    15    16   am
    12    11    16    1
    13    16    17    2
    14     8    18    1
    15    18    19   am
    16    19    20    2
    17    21    23    1
    18    23    24    1
    19    24    25   ar
    20    25    26   ar
    21    26    27   ar
    22    27    28   ar
    23    28    29   ar
    24    24    29   ar
    25    21    30    1
    26    30    31   am
    27    31    32    2
    28    31    33    1
    29    33    34    1
    30    33    35    1
    31    35    36   am
    32    36    37    2
    33    38    40    1
    34    40    41    1
    35    38    42    1
    36    42    43   am
    37    43    44    2
    38    43    45    1
    39    45    46    1
    40    46    47    1
    41    46    48    1
    42    46    49    1
    43    33    50    1
    44    50    51    1
    45    50    52    1
    46    38    39    1
    47    38    36    1
    48    21    22    1
    49    21    19    1
    50    11    12    1
    51    11    10    1
    52     8     9    1
    53     8     7    1
    54     1    53    1
    55     1    54    1
    56     1    55    1
    57     2    56    1
    58     2    57    1
    59     6    58    1
    60     7    59    1
    61    10    60    1
    62    10    61    1
    63    13    62    1
    64    13    63    1
    65    14    64    1
    66    14    65    1
    67    15    66    1
    68    18    67    1
    69    23    68    1
    70    23    69    1
    71    25    70    1
    72    26    71    1
    73    27    72    1
    74    28    73    1
    75    29    74    1
    76    30    75    1
    77    35    76    1
    78    40    77    1
    79    40    78    1
    80    41    79    1
    81    42    80    1
    82    47    81    1
    83    47    82    1
    84    47    83    1
    85    48    84    1
    86    48    85    1
    87    48    86    1
    88    49    87    1
    89    49    88    1
    90    49    89    1
    91    50    90    1
    92    51    91    1
    93    51    92    1
    94    51    93    1
    95    52    94    1
    96    52    95    1
    97    52    96    1
@<TRIPOS>MOLECULE
*****
 81 83 0 0 0
SMALL
GASTEIGER

@<TRIPOS>ATOM
      1 C           3.0405   -3.5110   -9.9614 C.3     1  LIG1       -0.0306
      2 C           2.1061   -2.3338   -9.7981 C.3     1  LIG1        0.0900
      3 O           2.0423   -1.6020  -11.0238 O.3     1  LIG1       -0.4618
      4 C           0.8009   -1.4444  -11.5399 C.2     1  LIG1        0.3317
      5 O          -0.0170   -2.3268  -11.7394 O.2     1  LIG1       -0.2456
      6 C           0.5314   -0.0053  -11.7588 C.2     1  LIG1        0.0203
      7 C           1.5242    0.9023  -11.8070 C.2     1  LIG1       -0.0572
      8 C           1.3379    2.3787  -12.0008 C.3     1  LIG1        0.0427
      9 H           0.4080    2.7145  -11.5292 H       1  LIG1        0.0543
     10 C           1.3584    2.7393  -13.5060 C.3     1  LIG1       -0.0197
     11 C           0.1841    2.1765  -14.3278 C.3     1  LIG1        0.0389
     12 H           0.0913    1.0919  -14.2349 H       1  LIG1        0.0395
     13 C           0.2602    2.5458  -15.8195 C.3     1  LIG1       -0.0262
     14 C          -0.4325    3.8943  -15.9119 C.3     1  LIG1        0.0123
     15 N          -1.3811    3.8468  -14.8441 N.am    1  LIG1       -0.3151
     16 C          -1.1205    2.8397  -13.9349 C.2     1  LIG1        0.2162
     17 O          -1.7949    2.5703  -12.9725 O.2     1  LIG1       -0.2755
     18 N           2.4516    3.0617  -11.3274 N.am    1  LIG1       -0.3075
     19 C           2.4543    3.3761   -9.9751 C.2     1  LIG1        0.2341
     20 O           1.4980    3.1284   -9.2446 O.2     1  LIG1       -0.2738
     21 C           3.6759    4.2306   -9.4947 C.3     1  LIG1        0.1034
     22 H           3.8432    3.9880   -8.4381 H       1  LIG1        0.0598
     23 C           3.4564    5.7490   -9.6565 C.3     1  LIG1       -0.0007
     24 C           2.2719    6.3585   -8.9423 C.ar    1  LIG1       -0.0451
     25 C           1.0497    6.5217   -9.6097 C.ar    1  LIG1       -0.0585
     26 C          -0.0476    7.0994   -8.9629 C.ar    1  LIG1       -0.0615
     27 C           0.0604    7.5246   -7.6413 C.ar    1  LIG1       -0.0617
     28 C           1.2647    7.3598   -6.9621 C.ar    1  LIG1       -0.0615
     29 C           2.3641    6.7815   -7.6073 C.ar    1  LIG1       -0.0585
     30 N           4.8927    3.8510  -10.2527 N.am    1  LIG1       -0.3022
     31 C           5.6496    2.7639   -9.8664 C.2     1  LIG1        0.2342
     32 O           5.3821    2.0909   -8.8759 O.2     1  LIG1       -0.2738
     33 C           6.8745    2.4837  -10.7730 C.3     1  LIG1        0.1020
     34 H           6.6457    2.8537  -11.7809 H       1  LIG1        0.0597
     35 N           8.0181    3.2314  -10.2554 N.am    1  LIG1       -0.2984
     36 C           8.2819    4.5196  -10.6752 C.2     1  LIG1        0.2663
     37 O           7.6043    5.0739  -11.5395 O.2     1  LIG1       -0.2684
     38 C           9.4243    5.1773  -10.0416 C.ar    1  LIG1        0.1678
     39 C          10.2582    6.1642  -10.6246 C.ar    1  LIG1        0.0125
     40 C          11.1327    6.5164   -9.6297 C.ar    1  LIG1        0.1350
     41 C          12.2326    7.4946   -9.5422 C.3     1  LIG1       -0.0037
     42 O          10.8588    5.7834   -8.5168 O.2     1  LIG1       -0.3592
     43 N           9.8018    4.9199   -8.7774 N.ar    1  LIG1       -0.0734
     44 C           7.1265    0.9592  -10.8537 C.3     1  LIG1       -0.0197
     45 C           5.9178    0.2551  -11.4931 C.3     1  LIG1       -0.0605
     46 C           8.3701    0.6085  -11.6747 C.3     1  LIG1       -0.0605
     47 H           3.1401   -4.0561   -9.0186 H       1  LIG1        0.0262
     48 H           4.0335   -3.1765  -10.2803 H       1  LIG1        0.0262
     49 H           2.6667   -4.1921  -10.7311 H       1  LIG1        0.0262
     50 H           2.5172   -1.6444   -9.0516 H       1  LIG1        0.0695
     51 H           1.1193   -2.6542   -9.4462 H       1  LIG1        0.0695
     52 H          -0.5158    0.2593  -11.8770 H       1  LIG1        0.0686
     53 H           2.5496    0.5630  -11.6914 H       1  LIG1        0.0593
     54 H           2.2969    2.3751  -13.9476 H       1  LIG1        0.0293
     55 H           1.3854    3.8331  -13.5943 H       1  LIG1        0.0293
     56 H          -0.3193    1.8073  -16.3916 H       1  LIG1        0.0288
     57 H           1.2748    2.5543  -16.2272 H       1  LIG1        0.0288
     58 H          -0.9511    4.0410  -16.8633 H       1  LIG1        0.0462
     59 H           0.2516    4.7285  -15.7320 H       1  LIG1        0.0462
     60 H          -2.1863    4.4505  -14.7299 H       1  LIG1        0.1487
     61 H           3.3624    3.0465  -11.7664 H       1  LIG1        0.1493
     62 H           3.4145    6.0083  -10.7237 H       1  LIG1        0.0336
     63 H           4.3599    6.2634   -9.2934 H       1  LIG1        0.0336
     64 H           0.9328    6.1839  -10.6366 H       1  LIG1        0.0620
     65 H          -0.9945    7.2012   -9.4867 H       1  LIG1        0.0618
     66 H          -0.7956    7.9670   -7.1375 H       1  LIG1        0.0618
     67 H           1.3443    7.6701   -5.9231 H       1  LIG1        0.0618
     68 H           3.2887    6.6638   -7.0474 H       1  LIG1        0.0620
     69 H           5.3897    4.5774  -10.7651 H       1  LIG1        0.1495
     70 H           8.5442    2.8764   -9.4614 H       1  LIG1        0.1498
     71 H          10.2133    6.5570  -11.6292 H       1  LIG1        0.0676
     72 H          11.8737    8.4302   -9.1025 H       1  LIG1        0.0309
     73 H          12.6275    7.7196  -10.5387 H       1  LIG1        0.0309
     74 H          13.0569    7.1162   -8.9306 H       1  LIG1        0.0309
     75 H           7.2659    0.5572   -9.8418 H       1  LIG1        0.0318
     76 H           5.7785    0.5814  -12.5302 H       1  LIG1        0.0233
     77 H           4.9897    0.4605  -10.9522 H       1  LIG1        0.0233
     78 H           6.0578   -0.8306  -11.4958 H       1  LIG1        0.0233
     79 H           8.2873    0.9855  -12.6997 H       1  LIG1        0.0233
     80 H           8.4939   -0.4795  -11.7291 H       1  LIG1        0.0233
     81 H           9.2797    1.0195  -11.2277 H       1  LIG1        0.0233
@<TRIPOS>BOND
     1     1     2    1
     2     2     3    1
     3     3     4    1
     4     4     5    2
     5     4     6    1
     6     6     7    2
     7     8    10    1
     8    11    13    1
     9    13    14    1
    10    14    15    1
    11    15    16   am
    12    11    16    1
    13    16    17    2
    14     8    18    1
    15    18    19   am
    16    19    20    2
    17    21    23    1
    18    23    24    1
    19    24    25   ar
    20    25    26   ar
    21    26    27   ar
    22    27    28   ar
    23    28    29   ar
    24    24    29   ar
    25    21    30    1
    26    30    31   am
    27    31    32    2
    28    31    33    1
    29    33    34    1
    30    33    35    1
    31    35    36   am
    32    36    37    2
    33    36    38    1
    34    38    39   ar
    35    39    40   ar
    36    40    41    1
    37    40    42   ar
    38    42    43   ar
    39    38    43   ar
    40    33    44    1
    41    44    45    1
    42    44    46    1
    43    11    12    1
    44    11    10    1
    45     8     9    1
    46     8     7    1
    47    21    22    1
    48    21    19    1
    49     1    47    1
    50     1    48    1
    51     1    49    1
    52     2    50    1
    53     2    51    1
    54     6    52    1
    55     7    53    1
    56    10    54    1
    57    10    55    1
    58    13    56    1
    59    13    57    1
    60    14    58    1
    61    14    59    1
    62    15    60    1
    63    18    61    1
    64    23    62    1
    65    23    63    1
    66    25    64    1
    67    26    65    1
    68    27    66    1
    69    28    67    1
    70    29    68    1
    71    30    69    1
    72    35    70    1
    73    39    71    1
    74    41    72    1
    75    41    73    1
    76    41    74    1
    77    44    75    1
    78    45    76    1
    79    45    77    1
    80    45    78    1
    81    46    79    1
    82    46    80    1
    83    46    81    1
@<TRIPOS>MOLECULE
*****
 80 81 0 0 0
SMALL
GASTEIGER

@<TRIPOS>ATOM
      1 C          -1.6185   -1.6281   -9.5871 C.3     1  LIG1       -0.0306
      2 C          -0.2961   -2.1680   -9.0824 C.3     1  LIG1        0.0900
      3 O           0.7087   -1.1559   -9.0103 O.3     1  LIG1       -0.4618
      4 C           1.2794   -0.8227  -10.1857 C.2     1  LIG1        0.3317
      5 O           0.8411   -1.0897  -11.3148 O.2     1  LIG1       -0.2456
      6 C           2.6134   -0.2577   -9.9809 C.2     1  LIG1        0.0203
      7 C           3.0305    0.2393   -8.8022 C.2     1  LIG1       -0.0572
      8 C           4.4249    0.7339   -8.5820 C.3     1  LIG1        0.0427
      9 H           5.0331    0.6325   -9.4881 H       1  LIG1        0.0543
     10 C           5.0968   -0.0199   -7.4120 C.3     1  LIG1       -0.0197
     11 C           5.1983   -1.5493   -7.5962 C.3     1  LIG1        0.0389
     12 H           4.2345   -2.0148   -7.8138 H       1  LIG1        0.0395
     13 C           5.8509   -2.2543   -6.3901 C.3     1  LIG1       -0.0262
     14 C           7.3351   -2.1129   -6.6694 C.3     1  LIG1        0.0123
     15 N           7.3900   -2.2640   -8.0873 N.am    1  LIG1       -0.3151
     16 C           6.2149   -1.8480   -8.6710 C.2     1  LIG1        0.2162
     17 O           6.0548   -1.7087   -9.8716 O.2     1  LIG1       -0.2755
     18 N           4.3054    2.1542   -8.3021 N.am    1  LIG1       -0.3075
     19 C           4.0745    3.0861   -9.2954 C.2     1  LIG1        0.2338
     20 O           3.9758    2.7506  -10.4771 O.2     1  LIG1       -0.2738
     21 C           3.9811    4.5633   -8.8137 C.3     1  LIG1        0.0996
     22 H           3.2839    4.6249   -7.9682 H       1  LIG1        0.0594
     23 C           3.5403    5.5755   -9.9166 C.3     1  LIG1       -0.0236
     24 C           2.1089    5.4981  -10.5324 C.3     1  LIG1       -0.0446
     25 C           1.9412    6.6040  -11.5920 C.3     1  LIG1       -0.0626
     26 C           1.7516    4.1797  -11.2155 C.3     1  LIG1       -0.0626
     27 N           5.3404    4.9358   -8.3159 N.am    1  LIG1       -0.3025
     28 C           5.8708    4.4985   -7.1189 C.2     1  LIG1        0.2342
     29 O           5.2527    3.7372   -6.3728 O.2     1  LIG1       -0.2738
     30 C           7.3046    4.9914   -6.7742 C.3     1  LIG1        0.1020
     31 H           7.4749    5.9158   -7.3207 H       1  LIG1        0.0597
     32 N           7.2901    5.2632   -5.3410 N.am    1  LIG1       -0.2984
     33 C           7.4697    6.5284   -4.8294 C.2     1  LIG1        0.2663
     34 O           7.6894    7.5096   -5.5390 O.2     1  LIG1       -0.2684
     35 C           7.3134    6.6440   -3.3943 C.ar    1  LIG1        0.1678
     36 C           6.9603    7.7965   -2.6454 C.ar    1  LIG1        0.0125
     37 C           6.8561    7.3322   -1.3486 C.ar    1  LIG1        0.1350
     38 C           6.4371    7.9320   -0.0720 C.3     1  LIG1       -0.0037
     39 O           7.2019    6.0224   -1.3129 O.2     1  LIG1       -0.3592
     40 N           7.4713    5.5811   -2.5948 N.ar    1  LIG1       -0.0734
     41 C           8.4626    4.0080   -7.0830 C.3     1  LIG1       -0.0197
     42 C           8.3881    2.6706   -6.3385 C.3     1  LIG1       -0.0605
     43 C           8.6390    3.7457   -8.5769 C.3     1  LIG1       -0.0605
     44 H          -2.3725   -2.4195   -9.5910 H       1  LIG1        0.0262
     45 H          -1.5302   -1.2378  -10.6049 H       1  LIG1        0.0262
     46 H          -1.9645   -0.8023   -8.9586 H       1  LIG1        0.0262
     47 H           0.0643   -2.9983   -9.7015 H       1  LIG1        0.0695
     48 H          -0.4212   -2.5595   -8.0677 H       1  LIG1        0.0695
     49 H           3.2683   -0.2976  -10.8461 H       1  LIG1        0.0686
     50 H           2.3477    0.2981   -7.9593 H       1  LIG1        0.0593
     51 H           4.5561    0.1898   -6.4791 H       1  LIG1        0.0293
     52 H           6.0991    0.4056   -7.2831 H       1  LIG1        0.0293
     53 H           5.5843   -3.3216   -6.4112 H       1  LIG1        0.0288
     54 H           5.5523   -1.8562   -5.4172 H       1  LIG1        0.0288
     55 H           7.9554   -2.8594   -6.1692 H       1  LIG1        0.0462
     56 H           7.6974   -1.1079   -6.4273 H       1  LIG1        0.0462
     57 H           8.2304   -2.3361   -8.6481 H       1  LIG1        0.1487
     58 H           4.6684    2.5078   -7.4152 H       1  LIG1        0.1493
     59 H           4.2764    5.5546  -10.7307 H       1  LIG1        0.0290
     60 H           3.6266    6.5828   -9.4779 H       1  LIG1        0.0290
     61 H           1.3717    5.6797   -9.7405 H       1  LIG1        0.0296
     62 H           2.6869    6.5008  -12.3892 H       1  LIG1        0.0232
     63 H           2.0433    7.5999  -11.1520 H       1  LIG1        0.0232
     64 H           0.9516    6.5504  -12.0629 H       1  LIG1        0.0232
     65 H           2.5309    3.8855  -11.9258 H       1  LIG1        0.0232
     66 H           0.8236    4.2580  -11.7945 H       1  LIG1        0.0232
     67 H           1.5895    3.3887  -10.4791 H       1  LIG1        0.0232
     68 H           5.9019    5.5299   -8.9143 H       1  LIG1        0.1495
     69 H           6.9354    4.5866   -4.7078 H       1  LIG1        0.1498
     70 H           6.7515    8.7824   -3.0128 H       1  LIG1        0.0676
     71 H           5.8772    7.2043    0.5253 H       1  LIG1        0.0309
     72 H           5.7890    8.7989   -0.2339 H       1  LIG1        0.0309
     73 H           7.3102    8.2505    0.5036 H       1  LIG1        0.0309
     74 H           9.3860    4.4971   -6.7385 H       1  LIG1        0.0318
     75 H           7.4692    2.1312   -6.5761 H       1  LIG1        0.0233
     76 H           8.4407    2.8097   -5.2542 H       1  LIG1        0.0233
     77 H           9.2321    2.0274   -6.6171 H       1  LIG1        0.0233
     78 H           7.7602    3.2568   -9.0059 H       1  LIG1        0.0233
     79 H           9.5012    3.0890   -8.7476 H       1  LIG1        0.0233
     80 H           8.8272    4.6770   -9.1193 H       1  LIG1        0.0233
@<TRIPOS>BOND
     1     1     2    1
     2     2     3    1
     3     3     4    1
     4     4     5    2
     5     4     6    1
     6     6     7    2
     7     8    10    1
     8    11    13    1
     9    13    14    1
    10    14    15    1
    11    15    16   am
    12    11    16    1
    13    16    17    2
    14     8    18    1
    15    18    19   am
    16    19    20    2
    17    21    23    1
    18    23    24    1
    19    24    25    1
    20    24    26    1
    21    21    27    1
    22    27    28   am
    23    28    29    2
    24    28    30    1
    25    30    31    1
    26    30    32    1
    27    32    33   am
    28    33    34    2
    29    33    35    1
    30    35    36   ar
    31    36    37   ar
    32    37    38    1
    33    37    39   ar
    34    39    40   ar
    35    35    40   ar
    36    30    41    1
    37    41    42    1
    38    41    43    1
    39    11    12    1
    40    11    10    1
    41     8     9    1
    42     8     7    1
    43    21    22    1
    44    21    19    1
    45     1    44    1
    46     1    45    1
    47     1    46    1
    48     2    47    1
    49     2    48    1
    50     6    49    1
    51     7    50    1
    52    10    51    1
    53    10    52    1
    54    13    53    1
    55    13    54    1
    56    14    55    1
    57    14    56    1
    58    15    57    1
    59    18    58    1
    60    23    59    1
    61    23    60    1
    62    24    61    1
    63    25    62    1
    64    25    63    1
    65    25    64    1
    66    26    65    1
    67    26    66    1
    68    26    67    1
    69    27    68    1
    70    32    69    1
    71    36    70    1
    72    38    71    1
    73    38    72    1
    74    38    73    1
    75    41    74    1
    76    42    75    1
    77    42    76    1
    78    42    77    1
    79    43    78    1
    80    43    79    1
    81    43    80    1
@<TRIPOS>MOLECULE
*****
 88 89 0 0 0
SMALL
GASTEIGER

@<TRIPOS>ATOM
      1 C          14.8345  -18.3203  -12.5917 C.3     1  LIG1       -0.0306
      2 C          15.5952  -18.0136  -13.8708 C.3     1  LIG1        0.0900
      3 O          16.6683  -17.1373  -13.5257 O.3     1  LIG1       -0.4618
      4 C          16.3354  -15.8273  -13.5265 C.2     1  LIG1        0.3317
      5 O          15.4250  -15.2838  -14.1279 O.2     1  LIG1       -0.2456
      6 C          17.1557  -15.2104  -12.4892 C.2     1  LIG1        0.0203
      7 C          16.9137  -13.9517  -12.1528 C.2     1  LIG1       -0.0572
      8 C          17.5140  -13.3263  -10.9661 C.3     1  LIG1        0.0427
      9 H          17.3159  -13.7718  -10.0012 H       1  LIG1        0.0543
     10 C          16.8539  -12.0025  -10.9584 C.3     1  LIG1       -0.0197
     11 C          15.4428  -11.5395  -10.7687 C.3     1  LIG1        0.0389
     12 H          14.8967  -11.9972  -11.5728 H       1  LIG1        0.0395
     13 C          15.1537  -10.0126  -10.7759 C.3     1  LIG1       -0.0262
     14 C          14.8924   -9.5666   -9.3605 C.3     1  LIG1        0.0123
     15 N          14.7072  -10.7934   -8.6706 N.am    1  LIG1       -0.3151
     16 C          15.0012  -11.9171   -9.3980 C.2     1  LIG1        0.2162
     17 O          14.9690  -13.0537   -8.9651 O.2     1  LIG1       -0.2755
     18 N          18.9594  -13.3423  -11.1058 N.am    1  LIG1       -0.3075
     19 C          19.8638  -12.4699  -10.5397 C.2     1  LIG1        0.2341
     20 O          21.0597  -12.7565  -10.6945 O.2     1  LIG1       -0.2738
     21 C          19.3131  -11.0338   -9.8938 C.3     1  LIG1        0.1034
     22 H          18.7680  -11.4872   -9.0637 H       1  LIG1        0.0598
     23 C          18.2945   -9.9173  -10.4810 C.3     1  LIG1       -0.0007
     24 C          18.4208   -9.1281  -11.6746 C.ar    1  LIG1       -0.0451
     25 C          18.0880   -9.9889  -13.2564 C.ar    1  LIG1       -0.0585
     26 C          18.9963   -9.6145  -14.3901 C.ar    1  LIG1       -0.0615
     27 C          20.3568   -8.0233  -14.1246 C.ar    1  LIG1       -0.0617
     28 C          20.5152   -7.3199  -12.5957 C.ar    1  LIG1       -0.0615
     29 C          19.5933   -7.8713  -11.4150 C.ar    1  LIG1       -0.0585
     30 N          20.3690  -10.3361   -9.2263 N.am    1  LIG1       -0.3022
     31 C          21.5092   -9.8178   -9.7769 C.2     1  LIG1        0.2341
     32 O          22.1903   -9.0720   -9.0642 O.2     1  LIG1       -0.2738
     33 C          22.0640  -10.2708  -11.1746 C.3     1  LIG1        0.1027
     34 H          22.6215  -11.1665  -10.8995 H       1  LIG1        0.0596
     35 C          22.9997   -9.2727  -11.7927 C.3     1  LIG1       -0.0235
     36 C          23.6474   -9.7128  -13.1252 C.3     1  LIG1       -0.0446
     37 C          24.5890   -8.6188  -13.6176 C.3     1  LIG1       -0.0626
     38 C          24.3345  -11.0775  -13.0102 C.3     1  LIG1       -0.0626
     39 N          21.2852  -10.8140  -12.2086 N.am    1  LIG1       -0.2698
     40 C          20.0722  -10.4657  -12.4460 C.2     1  LIG1        0.4014
     41 O          19.2983  -11.4169  -12.3760 O.2     1  LIG1       -0.2264
     42 O          19.8235   -9.1458  -12.7903 O.3     1  LIG1       -0.4447
     43 C          18.3704   -7.8044  -13.6497 C.3     1  LIG1        0.1068
     44 C          19.0467   -8.1070  -15.6973 C.3     1  LIG1       -0.0253
     45 C          16.8073   -8.2324  -13.1614 C.3     1  LIG1       -0.0253
     46 C          18.4435   -6.2731  -13.1743 C.3     1  LIG1       -0.0253
     47 H          13.9394  -18.9103  -12.7957 H       1  LIG1        0.0262
     48 H          14.5433  -17.3979  -12.0762 H       1  LIG1        0.0262
     49 H          15.4743  -18.8728  -11.8941 H       1  LIG1        0.0262
     50 H          14.9396  -17.5815  -14.6346 H       1  LIG1        0.0695
     51 H          16.0268  -18.9303  -14.2840 H       1  LIG1        0.0695
     52 H          17.8620  -15.8036  -11.9324 H       1  LIG1        0.0686
     53 H          16.2164  -13.3466  -12.7359 H       1  LIG1        0.0593
     54 H          17.0918  -11.6292  -11.9505 H       1  LIG1        0.0293
     55 H          17.2628  -11.6013  -10.0585 H       1  LIG1        0.0293
     56 H          14.2982   -9.8231  -11.4238 H       1  LIG1        0.0288
     57 H          15.9074   -9.3556  -11.1575 H       1  LIG1        0.0288
     58 H          13.9945   -8.9487   -9.2961 H       1  LIG1        0.0462
     59 H          15.7255   -9.0213   -8.8962 H       1  LIG1        0.0462
     60 H          14.4027  -10.8804   -7.7133 H       1  LIG1        0.1487
     61 H          19.3721  -13.7600  -11.9436 H       1  LIG1        0.1493
     62 H          17.7057   -9.3536   -9.7763 H       1  LIG1        0.0336
     63 H          17.5353  -10.2703  -11.0965 H       1  LIG1        0.0336
     64 H          17.5348  -10.8919  -13.5809 H       1  LIG1        0.0620
     65 H          17.9196   -9.4363  -15.2065 H       1  LIG1        0.0618
     66 H          20.0447   -6.8744  -14.7517 H       1  LIG1        0.0618
     67 H          20.9421   -6.3309  -12.4806 H       1  LIG1        0.0618
     68 H          20.1442   -8.0098  -10.5154 H       1  LIG1        0.0620
     69 H          20.1513  -10.1342   -8.2607 H       1  LIG1        0.1495
     70 H          23.7581   -9.0639  -11.0450 H       1  LIG1        0.0290
     71 H          22.4566   -8.3500  -11.9611 H       1  LIG1        0.0290
     72 H          22.8817   -9.8117  -13.9084 H       1  LIG1        0.0296
     73 H          25.1446   -8.1496  -12.8005 H       1  LIG1        0.0232
     74 H          24.0134   -7.8332  -14.1212 H       1  LIG1        0.0232
     75 H          25.3060   -9.0065  -14.3449 H       1  LIG1        0.0232
     76 H          24.7012  -11.2697  -11.9975 H       1  LIG1        0.0232
     77 H          25.1766  -11.1681  -13.6998 H       1  LIG1        0.0232
     78 H          23.6270  -11.8787  -13.2627 H       1  LIG1        0.0232
     79 H          21.4921  -10.7922  -13.1766 H       1  LIG1        0.1528
     80 H          19.4730   -9.4448  -16.0295 H       1  LIG1        0.0268
     81 H          20.3433   -8.2702  -15.8870 H       1  LIG1        0.0268
     82 H          18.3636   -7.5737  -16.1573 H       1  LIG1        0.0268
     83 H          16.4080   -9.2716  -13.0050 H       1  LIG1        0.0268
     84 H          16.2372   -7.9931  -14.0185 H       1  LIG1        0.0268
     85 H          16.6838   -7.9162  -12.0995 H       1  LIG1        0.0268
     86 H          19.3327   -5.6608  -13.3704 H       1  LIG1        0.0268
     87 H          18.2740   -6.1721  -12.0677 H       1  LIG1        0.0268
     88 H          17.6917   -5.8276  -13.7991 H       1  LIG1        0.0268
@<TRIPOS>BOND
     1     1     2    1
     2     2     3    1
     3     3     4    1
     4     4     5    2
     5     4     6    1
     6     6     7    2
     7     8    10    1
     8    11    13    1
     9    13    14    1
    10    14    15    1
    11    15    16   am
    12    11    16    1
    13    16    17    2
    14     8    18    1
    15    18    19   am
    16    19    20    2
    17    21    23    1
    18    23    24    1
    19    24    25   ar
    20    25    26   ar
    21    26    27   ar
    22    27    28   ar
    23    28    29   ar
    24    24    29   ar
    25    21    30    1
    26    30    31   am
    27    31    32    2
    28    33    35    1
    29    35    36    1
    30    36    37    1
    31    36    38    1
    32    33    39    1
    33    39    40   am
    34    40    41    2
    35    40    42    1
    36    42    43    1
    37    43    44    1
    38    43    45    1
    39    43    46    1
    40    33    34    1
    41    33    31    1
    42    11    12    1
    43    11    10    1
    44     8     9    1
    45     8     7    1
    46    21    22    1
    47    21    19    1
    48     1    47    1
    49     1    48    1
    50     1    49    1
    51     2    50    1
    52     2    51    1
    53     6    52    1
    54     7    53    1
    55    10    54    1
    56    10    55    1
    57    13    56    1
    58    13    57    1
    59    14    58    1
    60    14    59    1
    61    15    60    1
    62    18    61    1
    63    23    62    1
    64    23    63    1
    65    25    64    1
    66    26    65    1
    67    27    66    1
    68    28    67    1
    69    29    68    1
    70    30    69    1
    71    35    70    1
    72    35    71    1
    73    36    72    1
    74    37    73    1
    75    37    74    1
    76    37    75    1
    77    38    76    1
    78    38    77    1
    79    38    78    1
    80    39    79    1
    81    44    80    1
    82    44    81    1
    83    44    82    1
    84    45    83    1
    85    45    84    1
    86    45    85    1
    87    46    86    1
    88    46    87    1
    89    46    88    1
@<TRIPOS>MOLECULE
*****
 87 87 0 0 0
SMALL
GASTEIGER

@<TRIPOS>ATOM
      1 C           9.4697    5.9369  -17.4537 C.3     1  LIG1       -0.0306
      2 C          10.0676    7.2871  -17.0949 C.3     1  LIG1        0.0900
      3 O          10.1939    7.3528  -15.6745 O.3     1  LIG1       -0.4618
      4 C           9.0693    7.6826  -14.9982 C.2     1  LIG1        0.3317
      5 O           8.1127    8.3087  -15.4265 O.2     1  LIG1       -0.2456
      6 C           9.0827    7.0294  -13.6723 C.2     1  LIG1        0.0203
      7 C          10.2255    6.6349  -13.0820 C.2     1  LIG1       -0.0572
      8 C          10.3146    5.9460  -11.7483 C.3     1  LIG1        0.0427
      9 H           9.4221    5.3498  -11.5479 H       1  LIG1        0.0543
     10 C          10.5366    7.0348  -10.6753 C.3     1  LIG1       -0.0197
     11 C           9.2773    7.8618  -10.3811 C.3     1  LIG1        0.0389
     12 H           8.8620    8.3311  -11.2763 H       1  LIG1        0.0395
     13 C           9.5172    8.9400   -9.3142 C.3     1  LIG1       -0.0262
     14 C           9.2763    8.2154   -8.0037 C.3     1  LIG1        0.0123
     15 N           8.3022    7.2271   -8.3508 N.am    1  LIG1       -0.3151
     16 C           8.2433    6.9901   -9.7048 C.2     1  LIG1        0.2162
     17 O           7.5353    6.1564  -10.2402 O.2     1  LIG1       -0.2755
     18 N          11.4220    4.9883  -11.7570 N.am    1  LIG1       -0.3075
     19 C          11.5095    3.9484  -12.6670 C.2     1  LIG1        0.2338
     20 O          10.6534    3.7531  -13.5273 O.2     1  LIG1       -0.2738
     21 C          12.7268    2.9834  -12.5036 C.3     1  LIG1        0.0996
     22 H          13.0014    2.6440  -13.5101 H       1  LIG1        0.0594
     23 C          12.5099    1.7630  -11.5694 C.3     1  LIG1       -0.0236
     24 C          11.3755    0.7413  -11.8119 C.3     1  LIG1       -0.0446
     25 C          11.4653   -0.3683  -10.7443 C.3     1  LIG1       -0.0626
     26 C           9.9638    1.3114  -11.7414 C.3     1  LIG1       -0.0626
     27 N          13.8967    3.7245  -11.9498 N.am    1  LIG1       -0.3025
     28 C          14.4236    4.8417  -12.5788 C.2     1  LIG1        0.2341
     29 O          13.9653    5.3063  -13.6169 O.2     1  LIG1       -0.2738
     30 C          15.6460    5.4647  -11.8508 C.3     1  LIG1        0.1027
     31 H          15.9432    4.8250  -11.0132 H       1  LIG1        0.0596
     32 C          15.3125    6.8811  -11.3432 C.3     1  LIG1       -0.0235
     33 C          14.1340    6.9636  -10.3657 C.3     1  LIG1       -0.0446
     34 C          14.3573    6.0992   -9.1263 C.3     1  LIG1       -0.0626
     35 C          13.8914    8.4182   -9.9533 C.3     1  LIG1       -0.0626
     36 N          16.7597    5.4342  -12.7823 N.am    1  LIG1       -0.2698
     37 C          18.0479    5.8474  -12.5764 C.2     1  LIG1        0.4014
     38 O          18.9242    5.5305  -13.3422 O.2     1  LIG1       -0.2264
     39 O          18.1747    6.6907  -11.5139 O.3     1  LIG1       -0.4447
     40 C          19.2469    7.6738  -11.5027 C.3     1  LIG1        0.1068
     41 C          19.0831    8.6334  -12.6913 C.3     1  LIG1       -0.0253
     42 C          19.0870    8.4932  -10.2051 C.3     1  LIG1       -0.0253
     43 C          20.6227    7.0106  -11.4782 C.3     1  LIG1       -0.0253
     44 H           9.3375    5.8376  -18.5329 H       1  LIG1        0.0262
     45 H           8.5012    5.7916  -16.9627 H       1  LIG1        0.0262
     46 H          10.1196    5.1287  -17.0989 H       1  LIG1        0.0262
     47 H           9.4738    8.1181  -17.4890 H       1  LIG1        0.0695
     48 H          11.0762    7.3675  -17.5121 H       1  LIG1        0.0695
     49 H           8.1051    6.8917  -13.2209 H       1  LIG1        0.0686
     50 H          11.1731    6.8129  -13.5876 H       1  LIG1        0.0593
     51 H          11.3213    7.7277  -11.0081 H       1  LIG1        0.0293
     52 H          10.9085    6.5692   -9.7540 H       1  LIG1        0.0293
     53 H           8.7647    9.7310   -9.4350 H       1  LIG1        0.0288
     54 H          10.5029    9.4111   -9.3690 H       1  LIG1        0.0288
     55 H           8.8837    8.8686   -7.2216 H       1  LIG1        0.0462
     56 H          10.1755    7.7046   -7.6466 H       1  LIG1        0.0462
     57 H           7.7423    6.6817   -7.7068 H       1  LIG1        0.1487
     58 H          11.9515    4.8572  -10.9069 H       1  LIG1        0.1493
     59 H          12.4571    2.1116  -10.5296 H       1  LIG1        0.0290
     60 H          13.4445    1.1788  -11.6238 H       1  LIG1        0.0290
     61 H          11.5196    0.2758  -12.7947 H       1  LIG1        0.0296
     62 H          11.3649    0.0496   -9.7349 H       1  LIG1        0.0232
     63 H          12.4202   -0.9002  -10.7957 H       1  LIG1        0.0232
     64 H          10.6654   -1.1065  -10.8742 H       1  LIG1        0.0232
     65 H           9.7876    1.8287  -10.7932 H       1  LIG1        0.0232
     66 H           9.2194    0.5137  -11.8405 H       1  LIG1        0.0232
     67 H           9.7559    1.9923  -12.5589 H       1  LIG1        0.0232
     68 H          14.5953    3.1451  -11.4981 H       1  LIG1        0.1495
     69 H          15.1362    7.5460  -12.1984 H       1  LIG1        0.0290
     70 H          16.1694    7.2966  -10.8083 H       1  LIG1        0.0290
     71 H          13.2420    6.6122  -10.8791 H       1  LIG1        0.0296
     72 H          15.2630    6.4067   -8.5933 H       1  LIG1        0.0232
     73 H          14.4602    5.0421   -9.3864 H       1  LIG1        0.0232
     74 H          13.5095    6.1775   -8.4389 H       1  LIG1        0.0232
     75 H          14.7994    8.8764   -9.5473 H       1  LIG1        0.0232
     76 H          13.1090    8.4831   -9.1899 H       1  LIG1        0.0232
     77 H          13.5679    9.0150  -10.8131 H       1  LIG1        0.0232
     78 H          16.6320    4.9726  -13.6762 H       1  LIG1        0.1528
     79 H          18.1034    9.1271  -12.6600 H       1  LIG1        0.0268
     80 H          19.1272    8.1043  -13.6479 H       1  LIG1        0.0268
     81 H          19.8566    9.4082  -12.6951 H       1  LIG1        0.0268
     82 H          18.1777    9.1059  -10.2230 H       1  LIG1        0.0268
     83 H          19.9370    9.1700  -10.0522 H       1  LIG1        0.0268
     84 H          19.0058    7.8396   -9.3300 H       1  LIG1        0.0268
     85 H          20.8546    6.5135  -12.4230 H       1  LIG1        0.0268
     86 H          20.6641    6.2489  -10.6925 H       1  LIG1        0.0268
     87 H          21.4173    7.7432  -11.3011 H       1  LIG1        0.0268
@<TRIPOS>BOND
     1     1     2    1
     2     2     3    1
     3     3     4    1
     4     4     5    2
     5     4     6    1
     6     6     7    2
     7     8    10    1
     8    11    13    1
     9    13    14    1
    10    14    15    1
    11    15    16   am
    12    11    16    1
    13    16    17    2
    14     8    18    1
    15    18    19   am
    16    19    20    2
    17    21    23    1
    18    23    24    1
    19    24    25    1
    20    24    26    1
    21    21    27    1
    22    27    28   am
    23    28    29    2
    24    30    32    1
    25    32    33    1
    26    33    34    1
    27    33    35    1
    28    30    36    1
    29    36    37   am
    30    37    38    2
    31    37    39    1
    32    39    40    1
    33    40    41    1
    34    40    42    1
    35    40    43    1
    36    21    22    1
    37    21    19    1
    38    30    31    1
    39    30    28    1
    40     8     9    1
    41     8     7    1
    42    11    12    1
    43    11    10    1
    44     1    44    1
    45     1    45    1
    46     1    46    1
    47     2    47    1
    48     2    48    1
    49     6    49    1
    50     7    50    1
    51    10    51    1
    52    10    52    1
    53    13    53    1
    54    13    54    1
    55    14    55    1
    56    14    56    1
    57    15    57    1
    58    18    58    1
    59    23    59    1
    60    23    60    1
    61    24    61    1
    62    25    62    1
    63    25    63    1
    64    25    64    1
    65    26    65    1
    66    26    66    1
    67    26    67    1
    68    27    68    1
    69    32    69    1
    70    32    70    1
    71    33    71    1
    72    34    72    1
    73    34    73    1
    74    34    74    1
    75    35    75    1
    76    35    76    1
    77    35    77    1
    78    36    78    1
    79    41    79    1
    80    41    80    1
    81    41    81    1
    82    42    82    1
    83    42    83    1
    84    42    84    1
    85    43    85    1
    86    43    86    1
    87    43    87    1
@<TRIPOS>MOLECULE
*****
 108 109 0 0 0
SMALL
GASTEIGER

@<TRIPOS>ATOM
      1 C          14.8119   -1.0364   -1.3487 C.3     1  LIG1       -0.0306
      2 C          13.8553    0.1324   -1.4803 C.3     1  LIG1        0.0900
      3 O          12.6872   -0.2907   -2.1893 O.3     1  LIG1       -0.4618
      4 C          12.8201   -0.3580   -3.5351 C.2     1  LIG1        0.3317
      5 O          13.7943   -0.0697   -4.2045 O.2     1  LIG1       -0.2456
      6 C          11.5552   -0.8962   -4.0543 C.2     1  LIG1        0.0203
      7 C          11.2657   -0.7802   -5.3563 C.2     1  LIG1       -0.0572
      8 C          10.0959   -1.4112   -6.0496 C.3     1  LIG1        0.0427
      9 H           9.5562   -0.5895   -6.5729 H       1  LIG1        0.0543
     10 C           9.0842   -2.1234   -5.1253 C.3     1  LIG1       -0.0197
     11 C           7.8490   -2.7809   -5.7598 C.3     1  LIG1        0.0389
     12 H           7.3096   -3.3479   -4.9930 H       1  LIG1        0.0395
     13 C           8.1610   -3.7170   -6.9265 C.3     1  LIG1       -0.0262
     14 C           7.6728   -3.0010   -8.1665 C.3     1  LIG1        0.0123
     15 N           6.9731   -1.8502   -7.7108 N.am    1  LIG1       -0.3151
     16 C           6.8810   -1.7801   -6.3464 C.2     1  LIG1        0.2162
     17 O           6.1384   -1.0375   -5.7328 O.2     1  LIG1       -0.2755
     18 N          10.7182   -2.3608   -6.9817 N.am    1  LIG1       -0.3075
     19 C          10.7457   -2.1615   -8.3057 C.2     1  LIG1        0.2341
     20 O          10.3464   -0.9784   -8.6097 O.2     1  LIG1       -0.2738
     21 C          11.0971   -3.3094   -9.3513 C.3     1  LIG1        0.1034
     22 H          10.8549   -4.2352   -8.8006 H       1  LIG1        0.0598
     23 C          12.5996   -3.3831   -9.6725 C.3     1  LIG1       -0.0007
     24 C          13.6603   -3.2825   -8.5854 C.ar    1  LIG1       -0.0449
     25 C          14.0897   -2.0018   -8.1985 C.ar    1  LIG1       -0.0551
     26 C          15.3617   -1.8130   -7.6564 C.ar    1  LIG1       -0.0199
     27 C          16.2036   -2.9034   -7.5127 C.ar    1  LIG1        0.1169
     28 O          17.5313   -2.6716   -7.3024 O.3     1  LIG1       -0.5068
     29 C          15.7301   -4.1963   -7.6988 C.ar    1  LIG1       -0.0199
     30 C          14.4410   -4.3906   -8.2126 C.ar    1  LIG1       -0.0551
     31 N          10.2032   -3.4245  -10.6462 N.am    1  LIG1       -0.3022
     32 C          10.3560   -2.6337  -11.8009 C.2     1  LIG1        0.2340
     33 O          11.3322   -1.8800  -11.8833 O.2     1  LIG1       -0.2738
     34 C           9.2333   -2.6062  -13.0716 C.3     1  LIG1        0.0996
     35 H           8.3133   -3.0984  -12.7189 H       1  LIG1        0.0594
     36 C          10.0406   -3.4392  -14.1652 C.3     1  LIG1       -0.0236
     37 C           9.5109   -3.7190  -15.6187 C.3     1  LIG1       -0.0446
     38 C          10.4928   -4.3156  -16.6878 C.3     1  LIG1       -0.0626
     39 C           8.3181   -4.6733  -15.6336 C.3     1  LIG1       -0.0626
     40 N           8.8096   -1.1378  -13.5723 N.am    1  LIG1       -0.3025
     41 C           7.7818   -0.7283  -14.3945 C.2     1  LIG1        0.2341
     42 O           7.0852   -1.5500  -14.9898 O.2     1  LIG1       -0.2738
     43 C           7.5634    0.8841  -14.6392 C.3     1  LIG1        0.1027
     44 H           6.6181    0.8580  -15.2097 H       1  LIG1        0.0596
     45 C           8.5527    1.5047  -15.6809 C.3     1  LIG1       -0.0235
     46 C           9.9152    2.0441  -15.1913 C.3     1  LIG1       -0.0446
     47 C          10.8165    2.4264  -16.3776 C.3     1  LIG1       -0.0626
     48 C           9.7915    3.2865  -14.3043 C.3     1  LIG1       -0.0626
     49 N           7.1422    1.8644  -13.5848 N.am    1  LIG1       -0.2698
     50 C           7.7507    2.1532  -12.4105 C.2     1  LIG1        0.4014
     51 O           7.6032    3.2263  -11.8004 O.2     1  LIG1       -0.2264
     52 O           8.4659    1.1204  -11.9888 O.3     1  LIG1       -0.4447
     53 C           8.7420    0.9497  -10.5926 C.3     1  LIG1        0.1068
     54 C           7.4988    0.8414   -9.7389 C.3     1  LIG1       -0.0253
     55 C           9.2794   -0.4242  -10.5749 C.3     1  LIG1       -0.0253
     56 C           9.7505    1.9084   -9.9719 C.3     1  LIG1       -0.0253
     57 H          15.6738   -0.7759   -0.7303 H       1  LIG1        0.0262
     58 H          15.1730   -1.3427   -2.3354 H       1  LIG1        0.0262
     59 H          14.3042   -1.9051   -0.9163 H       1  LIG1        0.0262
     60 H          14.3291    0.9885   -1.9735 H       1  LIG1        0.0695
     61 H          13.5209    0.4661   -0.4925 H       1  LIG1        0.0695
     62 H          10.9214   -1.4150   -3.3479 H       1  LIG1        0.0686
     63 H          11.9502   -0.2320   -6.0072 H       1  LIG1        0.0593
     64 H           8.7378   -1.4282   -4.3476 H       1  LIG1        0.0293
     65 H           9.6325   -2.9277   -4.6209 H       1  LIG1        0.0293
     66 H           7.6418   -4.6711   -6.8197 H       1  LIG1        0.0288
     67 H           9.2080   -4.0132   -6.9792 H       1  LIG1        0.0288
     68 H           6.9989   -3.6200   -8.7558 H       1  LIG1        0.0462
     69 H           8.4727   -2.6943   -8.8192 H       1  LIG1        0.0462
     70 H           6.4255   -1.2299   -8.2940 H       1  LIG1        0.1487
     71 H          11.2628   -3.1487   -6.5740 H       1  LIG1        0.1493
     72 H          12.8611   -2.5938  -10.3842 H       1  LIG1        0.0336
     73 H          12.7803   -4.3091  -10.2369 H       1  LIG1        0.0336
     74 H          13.5017   -1.1216   -8.4522 H       1  LIG1        0.0621
     75 H          15.7312   -0.8088   -7.4685 H       1  LIG1        0.0654
     76 H          18.0179   -3.3136   -7.8502 H       1  LIG1        0.2921
     77 H          16.3847   -5.0458   -7.5232 H       1  LIG1        0.0654
     78 H          14.1234   -5.4072   -8.4299 H       1  LIG1        0.0621
     79 H           9.5812   -4.2236  -10.6883 H       1  LIG1        0.1495
     80 H          10.2709   -4.4019  -13.6835 H       1  LIG1        0.0290
     81 H          11.0068   -2.9243  -14.2498 H       1  LIG1        0.0290
     82 H           9.2057   -2.7540  -16.0301 H       1  LIG1        0.0296
     83 H          11.2379   -5.0224  -16.3081 H       1  LIG1        0.0232
     84 H          10.9929   -3.5327  -17.2703 H       1  LIG1        0.0232
     85 H           9.9318   -4.8778  -17.4556 H       1  LIG1        0.0232
     86 H           8.5763   -5.6358  -15.1774 H       1  LIG1        0.0232
     87 H           8.0153   -4.8877  -16.6682 H       1  LIG1        0.0232
     88 H           7.4512   -4.2430  -15.1371 H       1  LIG1        0.0232
     89 H           8.9133   -0.3574  -12.9286 H       1  LIG1        0.1495
     90 H           8.0412    2.3351  -16.1953 H       1  LIG1        0.0290
     91 H           8.7322    0.7511  -16.4595 H       1  LIG1        0.0290
     92 H          10.4179    1.2459  -14.6328 H       1  LIG1        0.0296
     93 H          10.2792    3.0526  -17.0996 H       1  LIG1        0.0232
     94 H          11.1908    1.5419  -16.8997 H       1  LIG1        0.0232
     95 H          11.6895    2.9969  -16.0346 H       1  LIG1        0.0232
     96 H           8.7586    3.5958  -14.1578 H       1  LIG1        0.0232
     97 H          10.2775    4.1707  -14.7271 H       1  LIG1        0.0232
     98 H          10.2555    3.0901  -13.3318 H       1  LIG1        0.0232
     99 H           6.5795    2.6432  -13.9031 H       1  LIG1        0.1528
    100 H           6.7964    0.1280  -10.1875 H       1  LIG1        0.0268
    101 H           7.0127    1.8045   -9.6335 H       1  LIG1        0.0268
    102 H           7.7950    0.4795   -8.7460 H       1  LIG1        0.0268
    103 H           8.7051   -1.1289   -9.9744 H       1  LIG1        0.0268
    104 H          10.3605   -0.4115  -10.4732 H       1  LIG1        0.0268
    105 H           9.1178   -0.9264  -11.4780 H       1  LIG1        0.0268
    106 H           9.2658    2.8536   -9.7221 H       1  LIG1        0.0268
    107 H          10.6035    2.1186  -10.6244 H       1  LIG1        0.0268
    108 H          10.1375    1.4972   -9.0295 H       1  LIG1        0.0268
@<TRIPOS>BOND
     1     1     2    1
     2     2     3    1
     3     3     4    1
     4     4     5    2
     5     4     6    1
     6     6     7    2
     7     8    10    1
     8    11    13    1
     9    13    14    1
    10    14    15    1
    11    15    16   am
    12    11    16    1
    13    16    17    2
    14     8    18    1
    15    18    19   am
    16    19    20    2
    17    21    23    1
    18    23    24    1
    19    24    25   ar
    20    25    26   ar
    21    26    27   ar
    22    27    28    1
    23    27    29   ar
    24    29    30   ar
    25    24    30   ar
    26    21    31    1
    27    31    32   am
    28    32    33    2
    29    34    36    1
    30    36    37    1
    31    37    38    1
    32    37    39    1
    33    34    40    1
    34    40    41   am
    35    41    42    2
    36    43    45    1
    37    45    46    1
    38    46    47    1
    39    46    48    1
    40    43    49    1
    41    49    50   am
    42    50    51    2
    43    50    52    1
    44    52    53    1
    45    53    54    1
    46    53    55    1
    47    53    56    1
    48    21    22    1
    49    21    19    1
    50    11    12    1
    51    11    10    1
    52     8     9    1
    53     8     7    1
    54    43    44    1
    55    43    41    1
    56    34    35    1
    57    34    32    1
    58     1    57    1
    59     1    58    1
    60     1    59    1
    61     2    60    1
    62     2    61    1
    63     6    62    1
    64     7    63    1
    65    10    64    1
    66    10    65    1
    67    13    66    1
    68    13    67    1
    69    14    68    1
    70    14    69    1
    71    15    70    1
    72    18    71    1
    73    23    72    1
    74    23    73    1
    75    25    74    1
    76    26    75    1
    77    28    76    1
    78    29    77    1
    79    30    78    1
    80    31    79    1
    81    36    80    1
    82    36    81    1
    83    37    82    1
    84    38    83    1
    85    38    84    1
    86    38    85    1
    87    39    86    1
    88    39    87    1
    89    39    88    1
    90    40    89    1
    91    45    90    1
    92    45    91    1
    93    46    92    1
    94    47    93    1
    95    47    94    1
    96    47    95    1
    97    48    96    1
    98    48    97    1
    99    48    98    1
   100    49    99    1
   101    54   100    1
   102    54   101    1
   103    54   102    1
   104    55   103    1
   105    55   104    1
   106    55   105    1
   107    56   106    1
   108    56   107    1
   109    56   108    1
@<TRIPOS>MOLECULE
*****
 106 106 0 0 0
SMALL
GASTEIGER

@<TRIPOS>ATOM
      1 C           8.8396   -9.0554    7.2016 C.3     1  LIG1       -0.0306
      2 C          10.1623   -9.7062    7.5633 C.3     1  LIG1        0.0900
      3 O          11.1868   -8.7094    7.5872 O.3     1  LIG1       -0.4618
      4 C          11.6288   -8.3378    6.3675 C.2     1  LIG1        0.3317
      5 O          11.3242   -8.8414    5.2799 O.2     1  LIG1       -0.2456
      6 C          12.5303   -7.2077    6.5295 C.2     1  LIG1        0.0203
      7 C          12.9533   -6.5047    5.4619 C.2     1  LIG1       -0.0572
      8 C          13.9507   -5.3825    5.5120 C.3     1  LIG1        0.0427
      9 H          13.6658   -4.5943    4.8154 H       1  LIG1        0.0543
     10 C          15.3781   -5.8907    5.1810 C.3     1  LIG1       -0.0197
     11 C          15.5141   -6.5242    3.7897 C.3     1  LIG1        0.0389
     12 H          14.7166   -7.2516    3.5989 H       1  LIG1        0.0395
     13 C          16.8665   -7.2133    3.5524 C.3     1  LIG1       -0.0262
     14 C          17.0300   -7.1567    2.0430 C.3     1  LIG1        0.0123
     15 N          16.3748   -5.9338    1.6936 N.am    1  LIG1       -0.3151
     16 C          15.4901   -5.5114    2.6626 C.2     1  LIG1        0.2162
     17 O          14.7854   -4.5205    2.5876 O.2     1  LIG1       -0.2755
     18 N          13.8654   -4.8805    6.8733 N.am    1  LIG1       -0.3075
     19 C          12.9976   -3.9474    7.3802 C.2     1  LIG1        0.2338
     20 O          12.6216   -4.0656    8.5496 O.2     1  LIG1       -0.2738
     21 C          12.6335   -2.7255    6.5265 C.3     1  LIG1        0.0996
     22 H          12.7786   -2.9568    5.4725 H       1  LIG1        0.0594
     23 C          13.4858   -1.4659    6.8444 C.3     1  LIG1       -0.0236
     24 C          15.0149   -1.6318    6.6334 C.3     1  LIG1       -0.0446
     25 C          15.7719   -0.3215    6.8532 C.3     1  LIG1       -0.0626
     26 C          15.6756   -2.6287    7.5788 C.3     1  LIG1       -0.0626
     27 N          11.2026   -2.4912    6.7349 N.am    1  LIG1       -0.3025
     28 C          10.4238   -2.0914    5.6737 C.2     1  LIG1        0.2340
     29 O          10.9272   -1.7990    4.5893 O.2     1  LIG1       -0.2738
     30 C           8.8978   -2.0431    5.9289 C.3     1  LIG1        0.0996
     31 H           8.5633   -3.0485    6.2138 H       1  LIG1        0.0594
     32 C           8.2274   -1.5802    4.6227 C.3     1  LIG1       -0.0236
     33 C           6.7002   -1.4304    4.6307 C.3     1  LIG1       -0.0446
     34 C           6.2615   -0.8181    3.2950 C.3     1  LIG1       -0.0626
     35 C           5.9690   -2.7536    4.8433 C.3     1  LIG1       -0.0626
     36 N           8.6825   -1.0854    7.0162 N.am    1  LIG1       -0.3025
     37 C           7.9243   -1.3236    8.1425 C.2     1  LIG1        0.2341
     38 O           7.2695   -2.3529    8.2988 O.2     1  LIG1       -0.2738
     39 C           7.8810   -0.1329    9.1195 C.3     1  LIG1        0.1027
     40 H           8.7826    0.4708    8.9961 H       1  LIG1        0.0596
     41 C           7.7633   -0.4587   10.6165 C.3     1  LIG1       -0.0235
     42 C           8.9479   -1.2851   11.1492 C.3     1  LIG1       -0.0446
     43 C           9.0070   -1.2075   12.6745 C.3     1  LIG1       -0.0626
     44 C           8.8751   -2.7530   10.7315 C.3     1  LIG1       -0.0626
     45 N           6.7214    0.6791    8.7201 N.am    1  LIG1       -0.2698
     46 C           6.7751    1.8395    8.0640 C.2     1  LIG1        0.4014
     47 O           5.7069    2.4708    7.8720 O.2     1  LIG1       -0.2264
     48 O           8.0167    2.1939    7.6506 O.3     1  LIG1       -0.4447
     49 C           8.2293    3.4262    6.9134 C.3     1  LIG1        0.1068
     50 C           8.2474    4.5959    7.8992 C.3     1  LIG1       -0.0253
     51 C           9.5949    3.3401    6.2029 C.3     1  LIG1       -0.0253
     52 C           7.1639    3.6110    5.8238 C.3     1  LIG1       -0.0253
     53 H           8.0359   -9.7937    7.1760 H       1  LIG1        0.0262
     54 H           8.8948   -8.5670    6.2230 H       1  LIG1        0.0262
     55 H           8.5890   -8.2724    7.9251 H       1  LIG1        0.0262
     56 H          10.4245  -10.5114    6.8675 H       1  LIG1        0.0695
     57 H          10.1035  -10.1479    8.5634 H       1  LIG1        0.0695
     58 H          12.8319   -6.9990    7.5508 H       1  LIG1        0.0686
     59 H          12.5710   -6.7442    4.4715 H       1  LIG1        0.0593
     60 H          15.6834   -6.6310    5.9334 H       1  LIG1        0.0293
     61 H          16.0893   -5.0578    5.2740 H       1  LIG1        0.0293
     62 H          16.8911   -8.2390    3.9331 H       1  LIG1        0.0288
     63 H          17.6759   -6.6520    4.0352 H       1  LIG1        0.0288
     64 H          16.5149   -7.9810    1.5393 H       1  LIG1        0.0462
     65 H          18.0761   -7.1263    1.7282 H       1  LIG1        0.0462
     66 H          16.4584   -5.4425    0.8113 H       1  LIG1        0.1487
     67 H          14.2219   -5.4959    7.5930 H       1  LIG1        0.1493
     68 H          13.2850   -1.1035    7.8612 H       1  LIG1        0.0290
     69 H          13.1427   -0.6569    6.1792 H       1  LIG1        0.0290
     70 H          15.1757   -1.9516    5.5956 H       1  LIG1        0.0296
     71 H          15.6570    0.0248    7.8867 H       1  LIG1        0.0232
     72 H          15.4375    0.4664    6.1761 H       1  LIG1        0.0232
     73 H          16.8442   -0.4827    6.6807 H       1  LIG1        0.0232
     74 H          15.4637   -2.4061    8.6280 H       1  LIG1        0.0232
     75 H          16.7502   -2.7178    7.4044 H       1  LIG1        0.0232
     76 H          15.3582   -3.6301    7.4037 H       1  LIG1        0.0232
     77 H          10.7576   -2.9498    7.5277 H       1  LIG1        0.1495
     78 H           8.5141   -2.2625    3.8080 H       1  LIG1        0.0290
     79 H           8.6562   -0.6035    4.3560 H       1  LIG1        0.0290
     80 H           6.4124   -0.7381    5.4299 H       1  LIG1        0.0296
     81 H           6.5404   -1.4624    2.4530 H       1  LIG1        0.0232
     82 H           6.7331    0.1585    3.1411 H       1  LIG1        0.0232
     83 H           5.1770   -0.6743    3.2671 H       1  LIG1        0.0232
     84 H           6.2692   -3.5008    4.1008 H       1  LIG1        0.0232
     85 H           4.8862   -2.6094    4.7510 H       1  LIG1        0.0232
     86 H           6.1609   -3.1620    5.8389 H       1  LIG1        0.0232
     87 H           9.1718   -0.2000    6.9438 H       1  LIG1        0.1495
     88 H           6.8070   -0.9439   10.8526 H       1  LIG1        0.0290
     89 H           7.7387    0.5007   11.1611 H       1  LIG1        0.0290
     90 H           9.8789   -0.8570   10.7576 H       1  LIG1        0.0296
     91 H           8.0864   -1.5886   13.1286 H       1  LIG1        0.0232
     92 H           9.1541   -0.1752   13.0079 H       1  LIG1        0.0232
     93 H           9.8460   -1.8008   13.0537 H       1  LIG1        0.0232
     94 H           7.8795   -3.1692   10.9235 H       1  LIG1        0.0232
     95 H           9.6119   -3.3599   11.2632 H       1  LIG1        0.0232
     96 H           9.1135   -2.8774    9.6746 H       1  LIG1        0.0232
     97 H           5.7971    0.2726    8.8014 H       1  LIG1        0.1528
     98 H           9.0310    4.4590    8.6553 H       1  LIG1        0.0268
     99 H           7.3017    4.6637    8.4451 H       1  LIG1        0.0268
    100 H           8.4248    5.5479    7.3891 H       1  LIG1        0.0268
    101 H          10.4333    3.3350    6.9090 H       1  LIG1        0.0268
    102 H           9.7398    4.1924    5.5270 H       1  LIG1        0.0268
    103 H           9.6796    2.4224    5.6086 H       1  LIG1        0.0268
    104 H           6.1697    3.7822    6.2395 H       1  LIG1        0.0268
    105 H           7.1043    2.7094    5.2034 H       1  LIG1        0.0268
    106 H           7.3692    4.4801    5.1967 H       1  LIG1        0.0268
@<TRIPOS>BOND
     1     1     2    1
     2     2     3    1
     3     3     4    1
     4     4     5    2
     5     4     6    1
     6     6     7    2
     7     8    10    1
     8    11    13    1
     9    13    14    1
    10    14    15    1
    11    15    16   am
    12    11    16    1
    13    16    17    2
    14     8    18    1
    15    18    19   am
    16    19    20    2
    17    21    23    1
    18    23    24    1
    19    24    25    1
    20    24    26    1
    21    21    27    1
    22    27    28   am
    23    28    29    2
    24    30    32    1
    25    32    33    1
    26    33    34    1
    27    33    35    1
    28    30    36    1
    29    36    37   am
    30    37    38    2
    31    39    41    1
    32    41    42    1
    33    42    43    1
    34    42    44    1
    35    39    45    1
    36    45    46   am
    37    46    47    2
    38    46    48    1
    39    48    49    1
    40    49    50    1
    41    49    51    1
    42    49    52    1
    43    30    31    1
    44    30    28    1
    45    21    22    1
    46    21    19    1
    47     8     9    1
    48     8     7    1
    49    39    40    1
    50    39    37    1
    51    11    12    1
    52    11    10    1
    53     1    53    1
    54     1    54    1
    55     1    55    1
    56     2    56    1
    57     2    57    1
    58     6    58    1
    59     7    59    1
    60    10    60    1
    61    10    61    1
    62    13    62    1
    63    13    63    1
    64    14    64    1
    65    14    65    1
    66    15    66    1
    67    18    67    1
    68    23    68    1
    69    23    69    1
    70    24    70    1
    71    25    71    1
    72    25    72    1
    73    25    73    1
    74    26    74    1
    75    26    75    1
    76    26    76    1
    77    27    77    1
    78    32    78    1
    79    32    79    1
    80    33    80    1
    81    34    81    1
    82    34    82    1
    83    34    83    1
    84    35    84    1
    85    35    85    1
    86    35    86    1
    87    36    87    1
    88    41    88    1
    89    41    89    1
    90    42    90    1
    91    43    91    1
    92    43    92    1
    93    43    93    1
    94    44    94    1
    95    44    95    1
    96    44    96    1
    97    45    97    1
    98    50    98    1
    99    50    99    1
   100    50   100    1
   101    51   101    1
   102    51   102    1
   103    51   103    1
   104    52   104    1
   105    52   105    1
   106    52   106    1
@<TRIPOS>MOLECULE
*****
 99 100 0 0 0
SMALL
GASTEIGER

@<TRIPOS>ATOM
      1 C           4.7090   -3.7517   -3.7219 C.3     1  UNK1       -0.0306
      2 C           4.0929   -5.1216   -3.7689 C.3     1  UNK1        0.0900
      3 O           4.2752   -5.7578   -2.5149 O.3     1  UNK1       -0.4618
      4 C           5.4949   -6.3183   -2.3399 C.2     1  UNK1        0.3317
      5 O           6.5832   -5.8620   -2.5896 O.2     1  UNK1       -0.2456
      6 C           5.2543   -7.6828   -1.8499 C.2     1  UNK1        0.0203
      7 C           4.1355   -8.3625   -2.1977 C.2     1  UNK1       -0.0572
      8 C           3.7429   -9.7916   -1.9050 C.3     1  UNK1        0.0427
      9 H           4.2961  -10.4586   -2.5283 H       1  UNK1        0.0543
     10 C           2.3825  -10.1463   -2.4664 C.3     1  UNK1       -0.0197
     11 C           1.9161  -11.5924   -2.2281 C.3     1  UNK1        0.0389
     12 H           1.6821  -11.7665   -1.1748 H       1  UNK1        0.0395
     13 C           2.7935  -12.7368   -2.7785 C.3     1  UNK1       -0.0262
     14 C           2.4476  -12.8068   -4.2554 C.3     1  UNK1        0.0123
     15 N           1.0947  -12.3405   -4.2884 N.am    1  UNK1       -0.3151
     16 C           0.7031  -11.7478   -3.1071 C.2     1  UNK1        0.2162
     17 O          -0.4197  -11.3089   -2.8838 O.2     1  UNK1       -0.2755
     18 N           4.0221  -10.1323   -0.5417 N.am    1  UNK1       -0.3075
     19 C           5.2425  -10.3321    0.0531 C.2     1  UNK1        0.2338
     20 O           5.2219  -10.3067    1.2872 O.2     1  UNK1       -0.2738
     21 C           6.5780  -10.6675   -0.7684 C.3     1  UNK1        0.0996
     22 H           7.3342   -9.9304   -0.4641 H       1  UNK1        0.0594
     23 C           6.4139  -10.6413   -2.2970 C.3     1  UNK1       -0.0236
     24 C           7.5278  -10.6367   -3.3150 C.3     1  UNK1       -0.0446
     25 C           8.1819  -11.9905   -3.2738 C.3     1  UNK1       -0.0626
     26 C           6.9308  -10.3831   -4.7233 C.3     1  UNK1       -0.0626
     27 N           7.0133  -12.0155   -0.3815 N.am    1  UNK1       -0.3024
     28 C           7.4663  -12.3397    0.8787 C.2     1  UNK1        0.2362
     29 O           7.6115  -11.5038    1.7648 O.2     1  UNK1       -0.2737
     30 C           8.0098  -13.7751    1.0419 C.3     1  UNK1        0.1226
     31 H           7.8046  -14.0660    2.0772 H       1  UNK1        0.0618
     32 C           9.5244  -13.7204    0.8040 C.3     1  UNK1        0.0711
     33 O          10.1518  -14.9670    1.1059 O.3     1  UNK1       -0.3927
     34 N           7.4283  -14.8014    0.1531 N.am    1  UNK1       -0.3006
     35 C           6.4925  -15.7126    0.6250 C.2     1  UNK1        0.2344
     36 O           6.0305  -15.5843    1.7547 O.2     1  UNK1       -0.2737
     37 C           6.0737  -16.8984   -0.2909 C.3     1  UNK1        0.1064
     38 H           4.9943  -16.8017   -0.4741 H       1  UNK1        0.0599
     39 C           6.3904  -18.3001    0.3266 C.3     1  UNK1       -0.0005
     40 C           5.8005  -18.7279    1.6658 C.ar    1  UNK1       -0.0451
     41 C           6.2974  -18.1959    2.8616 C.ar    1  UNK1       -0.0585
     42 C           5.8118  -18.6088    4.1068 C.ar    1  UNK1       -0.0615
     43 C           4.8403  -19.5971    4.1933 C.ar    1  UNK1       -0.0617
     44 C           4.3385  -20.1593    3.0248 C.ar    1  UNK1       -0.0615
     45 C           4.8158  -19.7323    1.7714 C.ar    1  UNK1       -0.0585
     46 N           6.7337  -16.7588   -1.6321 N.am    1  UNK1       -0.2695
     47 C           6.6174  -17.6129   -2.6496 C.2     0  UNK0        0.4014
     48 O           7.4694  -17.5087   -3.6165 O.2     0  UNK0       -0.2264
     49 O           5.5966  -18.4442   -2.5186 O.3     0  UNK0       -0.4447
     50 C           4.7719  -18.8982   -3.6384 C.3     0  UNK0        0.1068
     51 C           3.6236  -17.8156   -3.7683 C.3     0  UNK0       -0.0253
     52 C           5.6736  -19.1313   -4.8710 C.3     0  UNK0       -0.0253
     53 C           4.2618  -20.3243   -3.2562 C.3     0  UNK0       -0.0253
     54 H           4.4322   -3.1783   -4.6054 H       1  UNK1        0.0262
     55 H           5.7990   -3.8257   -3.6809 H       1  UNK1        0.0262
     56 H           4.3909   -3.2308   -2.8137 H       1  UNK1        0.0262
     57 H           4.4957   -5.7423   -4.5800 H       1  UNK1        0.0695
     58 H           3.0097   -5.0646   -3.9162 H       1  UNK1        0.0695
     59 H           6.1100   -8.0704   -1.3151 H       1  UNK1        0.0686
     60 H           3.4331   -7.8631   -2.8639 H       1  UNK1        0.0593
     61 H           2.4698   -9.9935   -3.5566 H       1  UNK1        0.0293
     62 H           1.6259   -9.4333   -2.1267 H       1  UNK1        0.0293
     63 H           2.4755  -13.6773   -2.3047 H       1  UNK1        0.0288
     64 H           3.8652  -12.6474   -2.5955 H       1  UNK1        0.0288
     65 H           2.4903  -13.8248   -4.6538 H       1  UNK1        0.0462
     66 H           3.0754  -12.1485   -4.8639 H       1  UNK1        0.0462
     67 H           0.4479  -12.4401   -5.0615 H       1  UNK1        0.1487
     68 H           3.2856  -10.0034    0.1489 H       1  UNK1        0.1493
     69 H           5.9687   -9.7115   -2.5769 H       1  UNK1        0.0290
     70 H           5.7638  -11.4839   -2.5592 H       1  UNK1        0.0290
     71 H           8.2236   -9.8224   -3.0877 H       1  UNK1        0.0296
     72 H           7.4172  -12.7790   -3.2444 H       1  UNK1        0.0232
     73 H           8.7950  -12.0564   -2.3737 H       1  UNK1        0.0232
     74 H           8.8060  -12.1568   -4.1473 H       1  UNK1        0.0232
     75 H           6.5456   -9.3599   -4.8339 H       1  UNK1        0.0232
     76 H           6.0969  -11.0618   -4.9486 H       1  UNK1        0.0232
     77 H           7.6989  -10.5279   -5.4870 H       1  UNK1        0.0232
     78 H           7.2494  -12.6552   -1.1173 H       1  UNK1        0.1495
     79 H           9.9911  -12.9502    1.4246 H       1  UNK1        0.0580
     80 H           9.7478  -13.4862   -0.2434 H       1  UNK1        0.0580
     81 H           9.7784  -15.6458    0.5196 H       1  UNK1        0.2095
     82 H           7.7068  -14.7789   -0.8091 H       1  UNK1        0.1496
     83 H           7.4832  -18.4050    0.3742 H       1  UNK1        0.0336
     84 H           6.0883  -19.0825   -0.3796 H       1  UNK1        0.0336
     85 H           7.0706  -17.4326    2.8542 H       1  UNK1        0.0620
     86 H           6.2007  -18.1491    5.0107 H       1  UNK1        0.0618
     87 H           4.4856  -19.9254    5.1670 H       1  UNK1        0.0618
     88 H           3.5784  -20.9348    3.0983 H       1  UNK1        0.0618
     89 H           4.4138  -20.2219    0.8869 H       1  UNK1        0.0620
     90 H           7.5086  -16.1466   -1.7773 H       1  UNK1        0.1528
     91 H           3.9751  -16.7665   -3.7115 H       0  UNK0        0.0268
     92 H           2.9089  -17.8619   -2.9259 H       0  UNK0        0.0268
     93 H           3.0217  -17.8842   -4.6814 H       0  UNK0        0.0268
     94 H           6.1811  -18.2297   -5.2179 H       0  UNK0        0.0268
     95 H           5.1407  -19.5503   -5.7261 H       0  UNK0        0.0268
     96 H           6.4751  -19.8427   -4.6047 H       0  UNK0        0.0268
     97 H           3.5735  -20.3434   -2.4043 H       0  UNK0        0.0268
     98 H           5.1007  -20.9741   -2.9487 H       0  UNK0        0.0268
     99 H           3.7822  -20.8359   -4.0998 H       0  UNK0        0.0268
@<TRIPOS>BOND
     1     1     2    1
     2     2     3    1
     3     3     4    1
     4     4     5    2
     5     4     6    1
     6     6     7    2
     7     8    10    1
     8    11    13    1
     9    13    14    1
    10    14    15    1
    11    15    16   am
    12    11    16    1
    13    16    17    2
    14     8    18    1
    15    18    19   am
    16    19    20    2
    17    21    23    1
    18    23    24    1
    19    24    25    1
    20    24    26    1
    21    21    27    1
    22    27    28   am
    23    28    29    2
    24    30    32    1
    25    32    33    1
    26    30    34    1
    27    34    35   am
    28    35    36    2
    29    37    39    1
    30    39    40    1
    31    40    41   ar
    32    41    42   ar
    33    42    43   ar
    34    43    44   ar
    35    44    45   ar
    36    40    45   ar
    37    37    46    1
    38    46    47   am
    39    47    48    2
    40    47    49    1
    41    49    50    1
    42    50    51    1
    43    50    52    1
    44    50    53    1
    45     8     9    1
    46     8     7    1
    47    11    12    1
    48    11    10    1
    49    30    31    1
    50    30    28    1
    51    21    22    1
    52    21    19    1
    53    37    38    1
    54    37    35    1
    55     1    54    1
    56     1    55    1
    57     1    56    1
    58     2    57    1
    59     2    58    1
    60     6    59    1
    61     7    60    1
    62    10    61    1
    63    10    62    1
    64    13    63    1
    65    13    64    1
    66    14    65    1
    67    14    66    1
    68    15    67    1
    69    18    68    1
    70    23    69    1
    71    23    70    1
    72    24    71    1
    73    25    72    1
    74    25    73    1
    75    25    74    1
    76    26    75    1
    77    26    76    1
    78    26    77    1
    79    27    78    1
    80    32    79    1
    81    32    80    1
    82    33    81    1
    83    34    82    1
    84    39    83    1
    85    39    84    1
    86    41    85    1
    87    42    86    1
    88    43    87    1
    89    44    88    1
    90    45    89    1
    91    46    90    1
    92    51    91    1
    93    51    92    1
    94    51    93    1
    95    52    94    1
    96    52    95    1
    97    52    96    1
    98    53    97    1
    99    53    98    1
   100    53    99    1
@<TRIPOS>MOLECULE
*****
 95 95 0 0 0
SMALL
GASTEIGER

@<TRIPOS>ATOM
      1 C           9.2007    2.0155   22.7363 C.3     1  UNK1       -0.0306
      2 C          10.2698    2.7369   21.9413 C.3     1  UNK1        0.0900
      3 O          11.2337    1.8145   21.4101 O.3     1  UNK1       -0.4618
      4 C          11.2896    1.7669   20.0579 C.2     1  UNK1        0.3317
      5 O          10.4603    2.2046   19.2758 O.2     1  UNK1       -0.2456
      6 C          12.6033    1.2331   19.6486 C.2     1  UNK1        0.0203
      7 C          13.1329    1.7021   18.5057 C.2     1  UNK1       -0.0572
      8 C          14.4250    1.2380   17.9063 C.3     1  UNK1        0.0427
      9 H          15.0929    0.8540   18.6812 H       1  UNK1        0.0543
     10 C          15.1322    2.3559   17.1101 C.3     1  UNK1       -0.0197
     11 C          15.5584    3.5667   17.9337 C.3     1  UNK1        0.0389
     12 H          14.7045    3.9985   18.4661 H       1  UNK1        0.0395
     13 C          16.2349    4.6691   17.0996 C.3     1  UNK1       -0.0262
     14 C          17.0740    5.4024   18.1319 C.3     1  UNK1        0.0123
     15 N          17.4600    4.3568   19.0308 N.am    1  UNK1       -0.3151
     16 C          16.6392    3.2637   18.9474 C.2     1  UNK1        0.2162
     17 O          16.7552    2.2562   19.6335 O.2     1  UNK1       -0.2755
     18 N          14.0801    0.1511   17.0029 N.am    1  UNK1       -0.3075
     19 C          14.5759   -1.1310   17.1534 C.2     1  UNK1        0.2338
     20 O          15.2848   -1.4615   18.0998 O.2     1  UNK1       -0.2738
     21 C          14.1513   -2.1162   16.0274 C.3     1  UNK1        0.0996
     22 H          13.0565   -2.1231   15.9728 H       1  UNK1        0.0594
     23 C          14.6730   -3.5505   16.2676 C.3     1  UNK1       -0.0236
     24 C          13.6993   -4.4780   17.0346 C.3     1  UNK1       -0.0446
     25 C          14.3207   -5.8687   17.2146 C.3     1  UNK1       -0.0626
     26 C          13.2782   -3.9353   18.3994 C.3     1  UNK1       -0.0626
     27 N          14.6674   -1.5970   14.7428 N.am    1  UNK1       -0.3024
     28 C          13.9690   -0.6652   14.0039 C.2     1  UNK1        0.2362
     29 O          12.8744   -0.2390   14.3763 O.2     1  UNK1       -0.2737
     30 C          14.6359   -0.1672   12.7030 C.3     1  UNK1        0.1226
     31 H          15.4911   -0.8113   12.4629 H       1  UNK1        0.0618
     32 C          15.1088    1.2762   12.9287 C.3     1  UNK1        0.0711
     33 O          16.0292    1.3535   14.0097 O.3     1  UNK1       -0.3927
     34 N          13.6326   -0.3099   11.6420 N.am    1  UNK1       -0.3006
     35 C          13.6286    0.4193   10.4753 C.2     1  UNK1        0.2344
     36 O          14.3931    1.3553   10.2564 O.2     1  UNK1       -0.2738
     37 C          12.5328    0.0201    9.4714 C.3     1  UNK1        0.1048
     38 H          12.3279   -1.0500    9.5991 H       1  UNK1        0.0598
     39 N          11.3161    0.7811    9.7473 N.am    1  UNK1       -0.2696
     40 C          10.4194    0.3278   10.6704 C.2     0  UNK0        0.4014
     41 O          10.5757   -0.7194   11.2495 O.2     0  UNK0       -0.2264
     42 O           9.4158    1.2499   10.8309 O.3     0  UNK0       -0.4447
     43 C           8.6050    1.2377   12.0434 C.3     0  UNK0        0.1068
     44 C           9.3374    2.1159   13.0637 C.3     0  UNK0       -0.0253
     45 C           7.2317    1.8684   11.7292 C.3     0  UNK0       -0.0253
     46 C           8.3341   -0.1594   12.6011 C.3     0  UNK0       -0.0253
     47 C          13.0160    0.2843    8.0321 C.3     1  UNK1       -0.0196
     48 C          14.2646   -0.5476    7.7140 C.3     1  UNK1       -0.0605
     49 C          11.9181   -0.0451    7.0210 C.3     1  UNK1       -0.0605
     50 H           8.5154    2.7372   23.1934 H       1  UNK1        0.0262
     51 H           9.6477    1.4085   23.5293 H       1  UNK1        0.0262
     52 H           8.6217    1.3433   22.0959 H       1  UNK1        0.0262
     53 H          10.8216    3.4130   22.6015 H       1  UNK1        0.0695
     54 H           9.8067    3.3585   21.1667 H       1  UNK1        0.0695
     55 H          13.0840    0.4851   20.2668 H       1  UNK1        0.0686
     56 H          12.6001    2.4799   17.9599 H       1  UNK1        0.0593
     57 H          14.4710    2.6970   16.3000 H       1  UNK1        0.0293
     58 H          16.0216    1.9269   16.6331 H       1  UNK1        0.0293
     59 H          15.5198    5.3286   16.5980 H       1  UNK1        0.0288
     60 H          16.8885    4.2341   16.3314 H       1  UNK1        0.0288
     61 H          16.4844    6.1349   18.6920 H       1  UNK1        0.0462
     62 H          17.9604    5.8803   17.7087 H       1  UNK1        0.0462
     63 H          18.2127    4.3927   19.7093 H       1  UNK1        0.1487
     64 H          13.3481    0.2938   16.3083 H       1  UNK1        0.1493
     65 H          15.6420   -3.5274   16.7824 H       1  UNK1        0.0290
     66 H          14.8674   -4.0242   15.2954 H       1  UNK1        0.0290
     67 H          12.7934   -4.5994   16.4269 H       1  UNK1        0.0296
     68 H          15.2340   -5.8228   17.8179 H       1  UNK1        0.0232
     69 H          14.5724   -6.3161   16.2476 H       1  UNK1        0.0232
     70 H          13.6207   -6.5450   17.7186 H       1  UNK1        0.0232
     71 H          14.1476   -3.6939   19.0185 H       1  UNK1        0.0232
     72 H          12.6797   -4.6744   18.9444 H       1  UNK1        0.0232
     73 H          12.6624   -3.0373   18.2941 H       1  UNK1        0.0232
     74 H          15.6451   -1.7657   14.5304 H       1  UNK1        0.1495
     75 H          14.2640    1.9476   13.1263 H       1  UNK1        0.0580
     76 H          15.6492    1.6658   12.0641 H       1  UNK1        0.0580
     77 H          15.4792    1.4388   14.8040 H       1  UNK1        0.2095
     78 H          12.7839   -0.8331   11.8638 H       1  UNK1        0.1496
     79 H          11.2321    1.7424    9.4588 H       1  UNK1        0.1528
     80 H           9.4139    3.1523   12.7099 H       0  UNK0        0.0268
     81 H          10.3653    1.7663   13.2088 H       0  UNK0        0.0268
     82 H           8.8285    2.1227   14.0321 H       0  UNK0        0.0268
     83 H           7.3130    2.8981   11.3656 H       0  UNK0        0.0268
     84 H           6.5955    1.8796   12.6249 H       0  UNK0        0.0268
     85 H           6.7040    1.2991   10.9554 H       0  UNK0        0.0268
     86 H           9.2458   -0.6335   12.9709 H       0  UNK0        0.0268
     87 H           7.9074   -0.8003   11.8206 H       0  UNK0        0.0268
     88 H           7.6507   -0.1325   13.4541 H       0  UNK0        0.0268
     89 H          13.2700    1.3468    7.9207 H       1  UNK1        0.0318
     90 H          14.0878   -1.6114    7.9060 H       1  UNK1        0.0233
     91 H          15.1228   -0.2375    8.3190 H       1  UNK1        0.0233
     92 H          14.5504   -0.4315    6.6644 H       1  UNK1        0.0233
     93 H          11.6230   -1.0972    7.0916 H       1  UNK1        0.0233
     94 H          12.2682    0.1481    6.0028 H       1  UNK1        0.0233
     95 H          11.0275    0.5706    7.1828 H       1  UNK1        0.0233
@<TRIPOS>BOND
     1     1     2    1
     2     2     3    1
     3     3     4    1
     4     4     5    2
     5     4     6    1
     6     6     7    2
     7     8    10    1
     8    11    13    1
     9    13    14    1
    10    14    15    1
    11    15    16   am
    12    11    16    1
    13    16    17    2
    14     8    18    1
    15    18    19   am
    16    19    20    2
    17    21    23    1
    18    23    24    1
    19    24    25    1
    20    24    26    1
    21    21    27    1
    22    27    28   am
    23    28    29    2
    24    30    32    1
    25    32    33    1
    26    30    34    1
    27    34    35   am
    28    35    36    2
    29    35    37    1
    30    37    38    1
    31    37    39    1
    32    39    40   am
    33    40    41    2
    34    40    42    1
    35    42    43    1
    36    43    44    1
    37    43    45    1
    38    43    46    1
    39    37    47    1
    40    47    48    1
    41    47    49    1
    42     8     9    1
    43     8     7    1
    44    30    31    1
    45    30    28    1
    46    21    22    1
    47    21    19    1
    48    11    12    1
    49    11    10    1
    50     1    50    1
    51     1    51    1
    52     1    52    1
    53     2    53    1
    54     2    54    1
    55     6    55    1
    56     7    56    1
    57    10    57    1
    58    10    58    1
    59    13    59    1
    60    13    60    1
    61    14    61    1
    62    14    62    1
    63    15    63    1
    64    18    64    1
    65    23    65    1
    66    23    66    1
    67    24    67    1
    68    25    68    1
    69    25    69    1
    70    25    70    1
    71    26    71    1
    72    26    72    1
    73    26    73    1
    74    27    74    1
    75    32    75    1
    76    32    76    1
    77    33    77    1
    78    34    78    1
    79    39    79    1
    80    44    80    1
    81    44    81    1
    82    44    82    1
    83    45    83    1
    84    45    84    1
    85    45    85    1
    86    46    86    1
    87    46    87    1
    88    46    88    1
    89    47    89    1
    90    48    90    1
    91    48    91    1
    92    48    92    1
    93    49    93    1
    94    49    94    1
    95    49    95    1
@<TRIPOS>MOLECULE
*****
 80 82 0 0 0
SMALL
GASTEIGER

@<TRIPOS>ATOM
      1 C          -0.5320   -5.7396   -2.3358 C.3     1  LIG1       -0.0626
      2 C          -0.3022   -4.3207   -2.9022 C.3     1  LIG1       -0.0446
      3 C           1.0510   -3.7941   -2.4145 C.3     1  LIG1       -0.0626
      4 C          -0.3881   -4.3070   -4.4580 C.3     1  LIG1       -0.0236
      5 C          -0.2303   -2.9246   -5.1651 C.3     1  LIG1        0.0996
      6 H           0.6855   -2.4493   -4.7950 H       1  LIG1        0.0594
      7 N          -1.3597   -2.0158   -4.8699 N.am    1  LIG1       -0.3025
      8 C          -1.1889   -0.6470   -4.7152 C.2     1  LIG1        0.2343
      9 O          -0.0745   -0.1363   -4.7633 O.2     1  LIG1       -0.2738
     10 C          -2.5023    0.1879   -4.5020 C.3     1  LIG1        0.1048
     11 H          -3.1947   -0.1907   -5.2665 H       1  LIG1        0.0598
     12 N          -3.1026   -0.0703   -3.1813 N.am    1  LIG1       -0.2696
     13 C          -4.0430   -1.0482   -3.0511 C.2     1  LIG1        0.4012
     14 O          -3.9149   -2.0015   -2.2993 O.2     1  LIG1       -0.2265
     15 O          -5.0838   -0.8127   -3.8796 O.3     1  LIG1       -0.4456
     16 C          -5.9806   -1.8999   -4.0975 C.3     1  LIG1        0.1191
     17 C          -5.5078   -2.5694   -5.3590 C.ar    1  LIG1       -0.0103
     18 C          -4.5897   -3.6240   -5.2720 C.ar    1  LIG1       -0.0554
     19 C          -4.1142   -4.2415   -6.4243 C.ar    1  LIG1       -0.0614
     20 C          -4.5517   -3.8088   -7.6731 C.ar    1  LIG1       -0.0617
     21 C          -5.4401   -2.7390   -7.7736 C.ar    1  LIG1       -0.0614
     22 C          -5.9071   -2.1083   -6.6208 C.ar    1  LIG1       -0.0554
     23 C          -2.3769    1.7165   -4.7072 C.3     1  LIG1       -0.0196
     24 C          -1.3344    2.4095   -3.8243 C.3     1  LIG1       -0.0605
     25 C          -2.1514    2.0944   -6.1702 C.3     1  LIG1       -0.0605
     26 C           0.0326   -3.1263   -6.7158 C.2     1  LIG1        0.2339
     27 O           0.9251   -3.8649   -7.1338 O.2     1  LIG1       -0.2738
     28 N          -0.7831   -2.4126   -7.5837 N.am    1  LIG1       -0.3037
     29 C          -0.5418   -2.3568   -9.0413 C.3     1  LIG1        0.0888
     30 H          -0.3032   -3.3952   -9.3259 H       1  LIG1        0.0582
     31 C          -1.8541   -1.9979   -9.8162 C.3     1  LIG1       -0.0160
     32 C          -2.5428   -0.6066   -9.5703 C.3     1  LIG1        0.0390
     33 H          -2.7832   -0.5305   -8.5195 H       1  LIG1        0.0395
     34 C          -3.8242   -0.4686  -10.4198 C.3     1  LIG1       -0.0262
     35 C          -3.6245    0.6739  -11.4013 C.3     1  LIG1        0.0123
     36 N          -2.3722    1.2518  -11.0197 N.am    1  LIG1       -0.3151
     37 C          -1.7733    0.6636   -9.9820 C.2     1  LIG1        0.2162
     38 O          -0.8596    1.1706   -9.4609 O.2     1  LIG1       -0.2755
     39 C           0.6653   -1.5508   -9.6177 C.2     1  LIG1        0.2079
     40 O           1.0541   -1.8319  -10.7603 O.2     1  LIG1       -0.2879
     41 C           1.1766   -0.4141   -8.8579 C.ar    1  LIG1        0.1453
     42 N           0.7041   -0.0426   -7.6842 N.ar    1  LIG1       -0.2443
     43 C           1.2525    1.1785   -7.3345 C.ar    1  LIG1        0.0355
     44 C           2.1666    1.7080   -8.2155 C.ar    1  LIG1       -0.0041
     45 S           2.3382    0.6575   -9.5584 S.2     1  LIG1       -0.0728
     46 H           0.0699   -5.9333   -1.4388 H       1  LIG1        0.0232
     47 H          -0.2951   -6.5231   -3.0624 H       1  LIG1        0.0232
     48 H          -1.5787   -5.8703   -2.0366 H       1  LIG1        0.0232
     49 H          -1.0873   -3.6779   -2.4836 H       1  LIG1        0.0296
     50 H           1.8708   -4.1823   -3.0274 H       1  LIG1        0.0232
     51 H           1.2512   -4.0770   -1.3743 H       1  LIG1        0.0232
     52 H           1.0738   -2.7012   -2.4573 H       1  LIG1        0.0232
     53 H          -1.3350   -4.7679   -4.7660 H       1  LIG1        0.0290
     54 H           0.4022   -4.9758   -4.8273 H       1  LIG1        0.0290
     55 H          -2.2686   -2.4256   -4.6967 H       1  LIG1        0.1495
     56 H          -2.4902    0.0347   -2.3791 H       1  LIG1        0.1528
     57 H          -6.9932   -1.5009   -4.2274 H       1  LIG1        0.0749
     58 H          -6.0264   -2.6063   -3.2593 H       1  LIG1        0.0749
     59 H          -4.2458   -3.9676   -4.2974 H       1  LIG1        0.0621
     60 H          -3.4169   -5.0712   -6.3467 H       1  LIG1        0.0618
     61 H          -4.2005   -4.3134   -8.5691 H       1  LIG1        0.0618
     62 H          -5.7785   -2.4061   -8.7514 H       1  LIG1        0.0618
     63 H          -6.5904   -1.2656   -6.7115 H       1  LIG1        0.0621
     64 H          -3.3511    2.1445   -4.4328 H       1  LIG1        0.0318
     65 H          -0.3093    2.1428   -4.0959 H       1  LIG1        0.0233
     66 H          -1.4812    2.1769   -2.7659 H       1  LIG1        0.0233
     67 H          -1.4139    3.4966   -3.9383 H       1  LIG1        0.0233
     68 H          -1.1446    1.8469   -6.4909 H       1  LIG1        0.0233
     69 H          -2.2787    3.1737   -6.3087 H       1  LIG1        0.0233
     70 H          -2.8491    1.5824   -6.8388 H       1  LIG1        0.0233
     71 H          -1.2949   -1.6531   -7.1580 H       1  LIG1        0.1495
     72 H          -2.5944   -2.7564   -9.5285 H       1  LIG1        0.0295
     73 H          -1.6944   -2.1455  -10.8928 H       1  LIG1        0.0295
     74 H          -4.6601   -0.2314   -9.7486 H       1  LIG1        0.0288
     75 H          -4.1057   -1.3817  -10.9592 H       1  LIG1        0.0288
     76 H          -4.3958    1.4461  -11.3126 H       1  LIG1        0.0462
     77 H          -3.5301    0.3545  -12.4373 H       1  LIG1        0.0462
     78 H          -1.9892    2.1275  -11.3676 H       1  LIG1        0.1487
     79 H           0.9439    1.6560   -6.4138 H       1  LIG1        0.0835
     80 H           2.7153    2.6346   -8.1246 H       1  LIG1        0.0709
@<TRIPOS>BOND
     1     1     2    1
     2     2     3    1
     3     2     4    1
     4     5     7    1
     5     7     8   am
     6     8     9    2
     7     8    10    1
     8    10    11    1
     9    10    12    1
    10    12    13   am
    11    13    14    2
    12    13    15    1
    13    15    16    1
    14    16    17    1
    15    17    18   ar
    16    18    19   ar
    17    19    20   ar
    18    20    21   ar
    19    21    22   ar
    20    17    22   ar
    21    10    23    1
    22    23    24    1
    23    23    25    1
    24     5    26    1
    25    26    27    2
    26    26    28   am
    27    28    29    1
    28    29    30    1
    29    29    31    1
    30    32    34    1
    31    34    35    1
    32    35    36    1
    33    36    37   am
    34    32    37    1
    35    37    38    2
    36    29    39    1
    37    39    40    2
    38    39    41    1
    39    41    42   ar
    40    42    43   ar
    41    43    44   ar
    42    44    45   ar
    43    41    45   ar
    44     5     6    1
    45     5     4    1
    46    32    33    1
    47    32    31    1
    48     1    46    1
    49     1    47    1
    50     1    48    1
    51     2    49    1
    52     3    50    1
    53     3    51    1
    54     3    52    1
    55     4    53    1
    56     4    54    1
    57     7    55    1
    58    12    56    1
    59    16    57    1
    60    16    58    1
    61    18    59    1
    62    19    60    1
    63    20    61    1
    64    21    62    1
    65    22    63    1
    66    23    64    1
    67    24    65    1
    68    24    66    1
    69    24    67    1
    70    25    68    1
    71    25    69    1
    72    25    70    1
    73    28    71    1
    74    31    72    1
    75    31    73    1
    76    34    74    1
    77    34    75    1
    78    35    76    1
    79    35    77    1
    80    36    78    1
    81    43    79    1
    82    44    80    1
@<TRIPOS>MOLECULE
*****
 97 99 0 0 0
SMALL
GASTEIGER

@<TRIPOS>ATOM
      1 C           5.6918    3.1161    7.1584 C.3     1  LIG1       -0.0037
      2 C           5.8430    3.0138    5.6949 C.ar    1  LIG1        0.1350
      3 C           4.9763    3.0611    4.6339 C.ar    1  LIG1        0.0125
      4 C           5.7980    2.9218    3.4845 C.ar    1  LIG1        0.1678
      5 C           5.3733    2.9198    2.0906 C.2     1  LIG1        0.2663
      6 O           4.2144    2.6048    1.7662 O.2     1  LIG1       -0.2684
      7 N           6.3042    3.3378    1.1715 N.am    1  LIG1       -0.2990
      8 C           6.0087    3.4304   -0.2645 C.3     1  LIG1        0.0969
      9 H           5.1299    4.0675   -0.3877 H       1  LIG1        0.0592
     10 C           7.2099    4.0663   -0.9706 C.3     1  LIG1       -0.0381
     11 C           5.7319    1.9882   -0.7776 C.2     1  LIG1        0.2337
     12 O           6.5637    1.0911   -0.5979 O.2     1  LIG1       -0.2738
     13 N           4.5502    1.6360   -1.3789 N.am    1  LIG1       -0.3022
     14 C           3.3665    2.4246   -1.7553 C.3     1  LIG1        0.1017
     15 H           3.7151    3.4518   -1.9103 H       1  LIG1        0.0597
     16 C           2.2883    2.4640   -0.6174 C.2     1  LIG1        0.2342
     17 O           2.0553    1.4989    0.1079 O.2     1  LIG1       -0.2738
     18 N           1.5480    3.6340   -0.5524 N.am    1  LIG1       -0.3025
     19 C           0.4684    3.8648    0.4167 C.3     1  LIG1        0.0996
     20 H           0.0284    2.8826    0.6357 H       1  LIG1        0.0594
     21 C           0.8835    4.4568    1.7911 C.3     1  LIG1       -0.0236
     22 C           1.5415    5.8569    1.8559 C.3     1  LIG1       -0.0446
     23 C           1.8385    6.2345    3.3175 C.3     1  LIG1       -0.0626
     24 C           2.8322    5.9629    1.0505 C.3     1  LIG1       -0.0626
     25 C          -0.6143    4.7464   -0.2680 C.2     1  LIG1        0.2338
     26 O          -0.3783    5.8795   -0.6738 O.2     1  LIG1       -0.2738
     27 N          -1.8147    4.1063   -0.4766 N.am    1  LIG1       -0.3075
     28 C          -3.0524    4.7185   -0.9711 C.3     1  LIG1        0.0427
     29 H          -3.3289    5.5112   -0.2657 H       1  LIG1        0.0543
     30 C          -4.0344    3.5761   -0.9047 C.2     1  LIG1       -0.0572
     31 C          -5.2971    3.6343   -0.4374 C.2     1  LIG1        0.0203
     32 C          -6.2767    2.5442   -0.7143 C.2     1  LIG1        0.3320
     33 O          -7.4741    2.7382   -0.7239 O.2     1  LIG1       -0.2456
     34 O          -5.6293    1.4128   -1.0876 O.3     1  LIG1       -0.4568
     35 C          -6.4008    0.4590   -1.8218 C.3     1  LIG1        0.1178
     36 C          -5.6218    0.0848   -3.0628 C.ar    1  LIG1       -0.0103
     37 C          -4.7415   -1.0060   -3.0523 C.ar    1  LIG1       -0.0554
     38 C          -4.0627   -1.3833   -4.2140 C.ar    1  LIG1       -0.0614
     39 C          -4.2412   -0.6645   -5.3941 C.ar    1  LIG1       -0.0617
     40 C          -5.0893    0.4407   -5.4107 C.ar    1  LIG1       -0.0614
     41 C          -5.7711    0.8176   -4.2499 C.ar    1  LIG1       -0.0554
     42 C          -2.9350    5.3334   -2.3990 C.3     1  LIG1       -0.0197
     43 C          -4.2258    5.9441   -3.0056 C.3     1  LIG1        0.0389
     44 H          -4.5606    6.7925   -2.3959 H       1  LIG1        0.0395
     45 C          -5.3999    4.9937   -3.2737 C.3     1  LIG1       -0.0262
     46 C          -5.1401    4.4237   -4.6423 C.3     1  LIG1        0.0123
     47 N          -4.5598    5.5198   -5.3147 N.am    1  LIG1       -0.3151
     48 C          -3.9785    6.4313   -4.4377 C.2     1  LIG1        0.2162
     49 O          -3.3766    7.4166   -4.7750 O.2     1  LIG1       -0.2755
     50 C           2.7374    1.9505   -3.1174 C.3     1  LIG1       -0.0197
     51 C           3.7839    1.8521   -4.2398 C.3     1  LIG1       -0.0605
     52 C           1.9320    0.6390   -3.1102 C.3     1  LIG1       -0.0605
     53 N           7.0939    2.8146    3.8401 N.ar    1  LIG1       -0.0734
     54 O           7.1084    2.8411    5.2257 O.2     1  LIG1       -0.3592
     55 H           4.6550    3.3343    7.4342 H       1  LIG1        0.0309
     56 H           6.3210    3.9191    7.5557 H       1  LIG1        0.0309
     57 H           5.9827    2.1797    7.6439 H       1  LIG1        0.0309
     58 H           3.9046    3.1999    4.6619 H       1  LIG1        0.0676
     59 H           7.2259    3.5700    1.5276 H       1  LIG1        0.1498
     60 H           7.5180    4.9927   -0.4662 H       1  LIG1        0.0252
     61 H           6.9821    4.3151   -2.0115 H       1  LIG1        0.0252
     62 H           8.0848    3.4040   -0.9722 H       1  LIG1        0.0252
     63 H           4.4246    0.6304   -1.3547 H       1  LIG1        0.1495
     64 H           1.5842    4.2794   -1.3333 H       1  LIG1        0.1495
     65 H           1.5328    3.7375    2.3076 H       1  LIG1        0.0290
     66 H          -0.0319    4.5176    2.4007 H       1  LIG1        0.0290
     67 H           0.8346    6.6041    1.4772 H       1  LIG1        0.0296
     68 H           2.2363    7.2546    3.3812 H       1  LIG1        0.0232
     69 H           2.5790    5.5608    3.7625 H       1  LIG1        0.0232
     70 H           0.9319    6.1995    3.9306 H       1  LIG1        0.0232
     71 H           3.4781    5.0995    1.2255 H       1  LIG1        0.0232
     72 H           3.3981    6.8601    1.3254 H       1  LIG1        0.0232
     73 H           2.6217    6.0336   -0.0196 H       1  LIG1        0.0232
     74 H          -1.8691    3.1442   -0.1636 H       1  LIG1        0.1493
     75 H          -3.6908    2.6559   -1.3798 H       1  LIG1        0.0593
     76 H          -5.7395    4.5704   -0.1094 H       1  LIG1        0.0686
     77 H          -7.3883    0.8341   -2.1137 H       1  LIG1        0.0749
     78 H          -6.5555   -0.4256   -1.1946 H       1  LIG1        0.0749
     79 H          -4.5946   -1.5847   -2.1431 H       1  LIG1        0.0621
     80 H          -3.4049   -2.2491   -4.2015 H       1  LIG1        0.0618
     81 H          -3.7254   -0.9711   -6.3010 H       1  LIG1        0.0618
     82 H          -5.2324    0.9961   -6.3345 H       1  LIG1        0.0618
     83 H          -6.4413    1.6730   -4.2845 H       1  LIG1        0.0621
     84 H          -2.4978    4.6047   -3.0929 H       1  LIG1        0.0293
     85 H          -2.1997    6.1504   -2.3551 H       1  LIG1        0.0293
     86 H          -6.3412    5.5571   -3.2429 H       1  LIG1        0.0288
     87 H          -5.5273    4.1585   -2.6196 H       1  LIG1        0.0288
     88 H          -6.0563    4.0783   -5.1234 H       1  LIG1        0.0462
     89 H          -4.4091    3.6083   -4.5952 H       1  LIG1        0.0462
     90 H          -4.4705    5.6212   -6.3177 H       1  LIG1        0.1487
     91 H           2.0215    2.7296   -3.4116 H       1  LIG1        0.0318
     92 H           4.5307    1.0763   -4.0336 H       1  LIG1        0.0233
     93 H           4.3033    2.8042   -4.3753 H       1  LIG1        0.0233
     94 H           3.3088    1.5918   -5.1941 H       1  LIG1        0.0233
     95 H           2.5706   -0.2489   -3.1735 H       1  LIG1        0.0233
     96 H           1.2785    0.6153   -3.9952 H       1  LIG1        0.0233
     97 H           1.2775    0.5407   -2.2420 H       1  LIG1        0.0233
@<TRIPOS>BOND
     1     1     2    1
     2     2     3   ar
     3     3     4   ar
     4     4     5    1
     5     5     6    2
     6     5     7   am
     7     7     8    1
     8     8     9    1
     9     8    10    1
    10     8    11    1
    11    11    12    2
    12    11    13   am
    13    14    16    1
    14    16    17    2
    15    16    18   am
    16    18    19    1
    17    19    20    1
    18    19    21    1
    19    21    22    1
    20    22    23    1
    21    22    24    1
    22    19    25    1
    23    25    26    2
    24    25    27   am
    25    28    30    1
    26    30    31    2
    27    31    32    1
    28    32    33    2
    29    32    34    1
    30    34    35    1
    31    35    36    1
    32    36    37   ar
    33    37    38   ar
    34    38    39   ar
    35    39    40   ar
    36    40    41   ar
    37    36    41   ar
    38    28    42    1
    39    43    45    1
    40    45    46    1
    41    46    47    1
    42    47    48   am
    43    43    48    1
    44    48    49    2
    45    14    50    1
    46    50    51    1
    47    50    52    1
    48     4    53   ar
    49    53    54   ar
    50     2    54   ar
    51    14    15    1
    52    14    13    1
    53    28    29    1
    54    28    27    1
    55    43    44    1
    56    43    42    1
    57     1    55    1
    58     1    56    1
    59     1    57    1
    60     3    58    1
    61     7    59    1
    62    10    60    1
    63    10    61    1
    64    10    62    1
    65    13    63    1
    66    18    64    1
    67    21    65    1
    68    21    66    1
    69    22    67    1
    70    23    68    1
    71    23    69    1
    72    23    70    1
    73    24    71    1
    74    24    72    1
    75    24    73    1
    76    27    74    1
    77    30    75    1
    78    31    76    1
    79    35    77    1
    80    35    78    1
    81    37    79    1
    82    38    80    1
    83    39    81    1
    84    40    82    1
    85    41    83    1
    86    42    84    1
    87    42    85    1
    88    45    86    1
    89    45    87    1
    90    46    88    1
    91    46    89    1
    92    47    90    1
    93    50    91    1
    94    51    92    1
    95    51    93    1
    96    51    94    1
    97    52    95    1
    98    52    96    1
    99    52    97    1
@<TRIPOS>MOLECULE
*****
 58 59 0 0 0
SMALL
GASTEIGER

@<TRIPOS>ATOM
      1 CD1         2.4225    0.9952   -4.7758 C.3     1  LEU1       -0.0626
      2 CG          2.3913    1.6696   -3.4006 C.3     1  LEU1       -0.0446
      3 CD2         1.0815    1.3384   -2.6827 C.3     1  LEU1       -0.0626
      4 CB          3.6074    1.3586   -2.4772 C.3     1  LEU1       -0.0235
      5 CA          4.9774    1.7614   -3.0636 C.3     1  LEU1        0.1027
      6 HA          5.1890    1.1694   -3.9611 H       1  LEU1        0.0596
      7 N           6.0938    1.5724   -2.1242 N.am    1  LEU1       -0.2698
      8 C           7.4060    1.5997   -2.4775 C.2     0  UNK0        0.4012
      9 O           7.8411    1.6780   -3.6367 O.2     0  UNK0       -0.2265
     10 O           8.1613    1.5266   -1.3568 O.3     0  UNK0       -0.4456
     11 C           9.5305    1.1219   -1.5125 C.3     0  UNK0        0.1191
     12 C           9.5834   -0.3875   -1.5439 C.ar    0  UNK0       -0.0103
     13 C           9.6838   -1.1372   -0.3633 C.ar    0  UNK0       -0.0554
     14 C           9.7102   -2.5348   -0.4125 C.ar    0  UNK0       -0.0614
     15 C           9.6132   -3.1967   -1.6355 C.ar    0  UNK0       -0.0617
     16 C           9.4608   -2.4624   -2.8080 C.ar    0  UNK0       -0.0614
     17 C           9.4530   -1.0678   -2.7628 C.ar    0  UNK0       -0.0554
     18 C           4.9573    3.2592   -3.4115 C.2     1  LEU1        0.2340
     19 O           4.2567    4.0736   -2.8196 O.2     1  LEU1       -0.2738
     20 N           5.8837    3.6184   -4.3506 N.am    2  UNK2       -0.3044
     21 C           6.1062    4.9821   -4.7935 C.3     2  UNK2        0.0791
     22 H           5.1562    5.4480   -5.0715 H       2  UNK2        0.0574
     23 C           6.9376    4.8248   -6.0800 C.2     2  UNK2        0.1404
     24 O           6.8851    3.8398   -6.8191 O.2     2  UNK2       -0.2991
     25 C           6.8887    5.8361   -3.7693 C.3     2  UNK2       -0.0167
     26 C           6.2413    6.1908   -2.4182 C.3     2  UNK2        0.0390
     27 C           7.1953    7.0103   -1.5279 C.3     2  UNK2       -0.0262
     28 C           6.2732    7.6635   -0.5137 C.3     2  UNK2        0.0123
     29 N           5.0762    7.8763   -1.2709 N.am    2  UNK2       -0.3151
     30 C           5.0689    7.1593   -2.4601 C.2     2  UNK2        0.2162
     31 O           4.2789    7.3368   -3.3702 O.2     2  UNK2       -0.2755
     32 HD11        1.4768    1.1682   -5.3066 H       1  LEU1        0.0232
     33 HD12        2.5679   -0.0865   -4.7059 H       1  LEU1        0.0232
     34 HD13        3.2125    1.4145   -5.4076 H       1  LEU1        0.0232
     35 HG          2.3614    2.7479   -3.5907 H       1  LEU1        0.0296
     36 HD21        1.0137    0.2743   -2.4388 H       1  LEU1        0.0232
     37 HD22        0.2207    1.6022   -3.3079 H       1  LEU1        0.0232
     38 HD23        0.9973    1.9132   -1.7543 H       1  LEU1        0.0232
     39 HB1         3.6160    0.2950   -2.2055 H       1  LEU1        0.0290
     40 HB2         3.4548    1.8991   -1.5299 H       1  LEU1        0.0290
     41 H           5.9253    1.5853   -1.1221 H       1  LEU1        0.1528
     42 H          10.0873    1.4913   -0.6419 H       0  UNK0        0.0749
     43 H          10.0149    1.5693   -2.3912 H       0  UNK0        0.0749
     44 H           9.7337   -0.6402    0.6031 H       0  UNK0        0.0621
     45 H           9.7939   -3.1110    0.5055 H       0  UNK0        0.0618
     46 H           9.6405   -4.2828   -1.6763 H       0  UNK0        0.0618
     47 H           9.3378   -2.9734   -3.7592 H       0  UNK0        0.0618
     48 H           9.3263   -0.5100   -3.6888 H       0  UNK0        0.0621
     49 H           6.3964    2.8750   -4.8309 H       2  UNK2        0.1494
     50 H           7.5740    5.6801   -6.3594 H       2  UNK2        0.1046
     51 H           7.1664    6.7750   -4.2639 H       2  UNK2        0.0294
     52 H           7.8285    5.3124   -3.5492 H       2  UNK2        0.0294
     53 H           5.9495    5.2972   -1.8583 H       2  UNK2        0.0395
     54 H           7.6680    7.7971   -2.1301 H       2  UNK2        0.0288
     55 H           7.9852    6.4133   -1.0655 H       2  UNK2        0.0288
     56 H           6.6628    8.6218   -0.1578 H       2  UNK2        0.0462
     57 H           6.0480    7.0202    0.3433 H       2  UNK2        0.0462
     58 H           4.4209    8.6346   -1.1238 H       2  UNK2        0.1487
@<TRIPOS>BOND
     1     1     2    1
     2     2     3    1
     3     2     4    1
     4     5     7    1
     5     7     8   am
     6     8     9    2
     7     8    10    1
     8    10    11    1
     9    11    12    1
    10    12    13   ar
    11    13    14   ar
    12    14    15   ar
    13    15    16   ar
    14    16    17   ar
    15    12    17   ar
    16     5    18    1
    17    18    19    2
    18    18    20   am
    19    21    23    1
    20    23    24    2
    21    21    25    1
    22    25    26    1
    23    26    27    1
    24    27    28    1
    25    28    29    1
    26    29    30   am
    27    26    30    1
    28    30    31    2
    29     5     6    1
    30     5     4    1
    31    21    22    1
    32    21    20    1
    33     1    32    1
    34     1    33    1
    35     1    34    1
    36     2    35    1
    37     3    36    1
    38     3    37    1
    39     3    38    1
    40     4    39    1
    41     4    40    1
    42     7    41    1
    43    11    42    1
    44    11    43    1
    45    13    44    1
    46    14    45    1
    47    15    46    1
    48    16    47    1
    49    17    48    1
    50    20    49    1
    51    23    50    1
    52    25    51    1
    53    25    52    1
    54    26    53    1
    55    27    54    1
    56    27    55    1
    57    28    56    1
    58    28    57    1
    59    29    58    1
@<TRIPOS>MOLECULE
*****
 65 66 0 0 0
SMALL
GASTEIGER

@<TRIPOS>ATOM
      1 CD1         4.1748   -2.8195    5.7365 C.3     1  LEU1       -0.0626
      2 CG          3.8451   -2.6752    4.2502 C.3     1  LEU1       -0.0446
      3 CD2         2.3992   -2.1842    4.0901 C.3     1  LEU1       -0.0626
      4 CB          4.8288   -1.7383    3.5131 C.3     1  LEU1       -0.0236
      5 CA          6.3064   -2.1860    3.5208 C.3     1  LEU1        0.0996
      6 HA          6.6684   -2.2986    4.5497 H       1  LEU1        0.0594
      7 N           7.1157   -1.1581    2.8407 N.am    1  LEU1       -0.3027
      8 C           8.4322   -0.9245    3.1667 C.2     0  UNK0        0.2309
      9 O           9.0170   -1.5050    4.0787 O.2     0  UNK0       -0.2741
     10 C           9.1179    0.1465    2.3219 C.3     0  UNK0        0.0912
     11 N          10.4737    0.3335    2.7805 N.am    0  UNK0       -0.2725
     12 C          11.3377    1.2149    2.2433 C.2     0  UNK0        0.4010
     13 O          11.1637    1.8146    1.1740 O.2     0  UNK0       -0.2265
     14 O          12.4145    1.3142    3.0447 O.3     0  UNK0       -0.4456
     15 C          13.5625    1.9720    2.5020 C.3     0  UNK0        0.1191
     16 C          14.3681    0.9288    1.7736 C.ar    0  UNK0       -0.0103
     17 C          15.3254    0.1667    2.4557 C.ar    0  UNK0       -0.0554
     18 C          16.0224   -0.8436    1.7932 C.ar    0  UNK0       -0.0614
     19 C          15.7547   -1.1136    0.4519 C.ar    0  UNK0       -0.0617
     20 C          14.7894   -0.3756   -0.2291 C.ar    0  UNK0       -0.0614
     21 C          14.0997    0.6411    0.4281 C.ar    0  UNK0       -0.0554
     22 C           6.5429   -3.4970    2.7209 C.2     1  LEU1        0.2339
     23 O           5.8501   -3.8175    1.7592 O.2     1  LEU1       -0.2738
     24 N           7.7058   -4.1524    3.0686 N.am    2  UNK2       -0.3044
     25 C           8.2095   -5.3760    2.4564 C.3     2  UNK2        0.0791
     26 H           7.9035   -5.3653    1.3993 H       2  UNK2        0.0574
     27 C           7.5616   -6.6292    3.0524 C.2     2  UNK2        0.1404
     28 O           6.3868   -6.9563    2.9039 O.2     2  UNK2       -0.2991
     29 C           9.7601   -5.4608    2.4955 C.3     2  UNK2       -0.0167
     30 C          10.4730   -5.5472    3.8678 C.3     2  UNK2        0.0390
     31 C          12.0118   -5.5912    3.7171 C.3     2  UNK2       -0.0262
     32 C          12.5371   -4.7543    4.8695 C.3     2  UNK2        0.0123
     33 N          11.5098   -3.7845    5.0552 N.am    2  UNK2       -0.3151
     34 C          10.2863   -4.3489    4.7784 C.2     2  UNK2        0.2162
     35 O           9.2244   -3.9955    5.2614 O.2     2  UNK2       -0.2755
     36 HD11        3.3541   -3.3048    6.2774 H       1  LEU1        0.0232
     37 HD12        4.3561   -1.8472    6.2055 H       1  LEU1        0.0232
     38 HD13        5.0622   -3.4441    5.8767 H       1  LEU1        0.0232
     39 HG          3.8976   -3.6717    3.7967 H       1  LEU1        0.0296
     40 HD21        2.3054   -1.1122    4.2933 H       1  LEU1        0.0232
     41 HD22        1.7233   -2.7135    4.7720 H       1  LEU1        0.0232
     42 HD23        2.0398   -2.3706    3.0724 H       1  LEU1        0.0232
     43 HB1         4.7621   -0.7327    3.9554 H       1  LEU1        0.0290
     44 HB2         4.4938   -1.6213    2.4737 H       1  LEU1        0.0290
     45 H           6.8077   -0.8975    1.9113 H       1  LEU1        0.1495
     46 H           8.5874    1.0947    2.4549 H       0  UNK0        0.0559
     47 H           9.1241   -0.1329    1.2647 H       0  UNK0        0.0559
     48 H          10.8240   -0.2620    3.5287 H       0  UNK0        0.1525
     49 H          14.1445    2.3750    3.3394 H       0  UNK0        0.0749
     50 H          13.3096    2.8285    1.8637 H       0  UNK0        0.0749
     51 H          15.5267    0.3531    3.5083 H       0  UNK0        0.0621
     52 H          16.7733   -1.4215    2.3243 H       0  UNK0        0.0618
     53 H          16.2974   -1.9007   -0.0638 H       0  UNK0        0.0618
     54 H          14.5696   -0.5901   -1.2713 H       0  UNK0        0.0618
     55 H          13.3354    1.1991   -0.1111 H       0  UNK0        0.0621
     56 H           8.2361   -3.7379    3.8389 H       2  UNK2        0.1494
     57 H           8.2020   -7.2321    3.7143 H       2  UNK2        0.1046
     58 H          10.1502   -4.5939    1.9455 H       2  UNK2        0.0294
     59 H          10.0617   -6.3492    1.9210 H       2  UNK2        0.0294
     60 H          10.1469   -6.4294    4.4282 H       2  UNK2        0.0395
     61 H          12.3271   -5.1444    2.7669 H       2  UNK2        0.0288
     62 H          12.4014   -6.6134    3.7514 H       2  UNK2        0.0288
     63 H          13.4988   -4.2755    4.6705 H       2  UNK2        0.0462
     64 H          12.6019   -5.3384    5.7944 H       2  UNK2        0.0462
     65 H          11.5435   -3.0482    5.7520 H       2  UNK2        0.1487
@<TRIPOS>BOND
     1     1     2    1
     2     2     3    1
     3     2     4    1
     4     5     7    1
     5     7     8   am
     6     8     9    2
     7     8    10    1
     8    10    11    1
     9    11    12   am
    10    12    13    2
    11    12    14    1
    12    14    15    1
    13    15    16    1
    14    16    17   ar
    15    17    18   ar
    16    18    19   ar
    17    19    20   ar
    18    20    21   ar
    19    16    21   ar
    20     5    22    1
    21    22    23    2
    22    22    24   am
    23    25    27    1
    24    27    28    2
    25    25    29    1
    26    29    30    1
    27    30    31    1
    28    31    32    1
    29    32    33    1
    30    33    34   am
    31    30    34    1
    32    34    35    2
    33    25    26    1
    34    25    24    1
    35     5     6    1
    36     5     4    1
    37     1    36    1
    38     1    37    1
    39     1    38    1
    40     2    39    1
    41     3    40    1
    42     3    41    1
    43     3    42    1
    44     4    43    1
    45     4    44    1
    46     7    45    1
    47    10    46    1
    48    10    47    1
    49    11    48    1
    50    15    49    1
    51    15    50    1
    52    17    51    1
    53    18    52    1
    54    19    53    1
    55    20    54    1
    56    21    55    1
    57    24    56    1
    58    27    57    1
    59    29    58    1
    60    29    59    1
    61    30    60    1
    62    31    61    1
    63    31    62    1
    64    32    63    1
    65    32    64    1
    66    33    65    1
@<TRIPOS>MOLECULE
*****
 90 93 0 0 0
SMALL
GASTEIGER

@<TRIPOS>ATOM
      1 C          -0.0829    7.5157    4.3381 C.3     1  LIG1       -0.0626
      2 C          -0.4728    8.9797    4.1005 C.3     1  LIG1       -0.0446
      3 C          -0.4209    9.6784    5.5554 C.3     1  LIG1       -0.0626
      4 C           0.1924    9.5704    2.7022 C.3     1  LIG1       -0.0236
      5 C          -0.1042    8.9817    1.1794 C.3     1  LIG1        0.0996
      6 H           0.1983    9.7549    0.4542 H       1  LIG1        0.0594
      7 N          -1.5435    8.7649    0.9122 N.am    1  LIG1       -0.3025
      8 C          -2.5252    9.5054    0.3209 C.2     1  LIG1        0.2343
      9 O          -3.5703    8.8865    0.0526 O.2     1  LIG1       -0.2738
     10 C          -2.4275   11.0208    0.0537 C.3     1  LIG1        0.1048
     11 H          -1.4726   11.2707   -0.3653 H       1  LIG1        0.0598
     12 N          -3.4723   11.3526   -0.9292 N.am    1  LIG1       -0.2696
     13 C          -3.3732   11.1970   -2.2726 C.2     1  LIG1        0.4012
     14 O          -4.4531   11.2941   -3.0273 O.2     1  LIG1       -0.2265
     15 O          -2.1266   11.0929   -2.7372 O.3     1  LIG1       -0.4456
     16 C          -1.7820   11.7603   -3.9866 C.3     1  LIG1        0.1191
     17 C          -1.6518   13.2287   -3.6134 C.ar    1  LIG1       -0.0103
     18 C          -2.8236   13.8851   -3.2099 C.ar    1  LIG1       -0.0554
     19 C          -2.7795   14.9224   -2.2927 C.ar    1  LIG1       -0.0614
     20 C          -1.5566   15.4838   -1.9585 C.ar    1  LIG1       -0.0617
     21 C          -0.3902   14.9976   -2.5567 C.ar    1  LIG1       -0.0614
     22 C          -0.4243   13.8528   -3.3692 C.ar    1  LIG1       -0.0554
     23 C          -2.6545   11.8594    1.3811 C.3     1  LIG1       -0.0196
     24 C          -2.7368   13.3690    1.1086 C.3     1  LIG1       -0.0605
     25 C          -3.8340   11.4506    2.2810 C.3     1  LIG1       -0.0605
     26 C           0.6089    7.6692    0.5583 C.2     1  LIG1        0.2339
     27 O          -0.0642    6.7891    0.0006 O.2     1  LIG1       -0.2738
     28 N           1.9636    7.4913    0.4895 N.am    1  LIG1       -0.3037
     29 C           2.9878    8.5229    0.4679 C.3     1  LIG1        0.0888
     30 H           2.4258    9.4428    0.3043 H       1  LIG1        0.0582
     31 C           3.7137    8.6105    1.8161 C.3     1  LIG1       -0.0160
     32 C           4.4841    7.3968    2.3620 C.3     1  LIG1        0.0390
     33 H           5.3499    7.2016    1.7215 H       1  LIG1        0.0395
     34 C           3.7060    6.0887    2.5876 C.3     1  LIG1       -0.0262
     35 C           3.8934    5.6871    4.0410 C.3     1  LIG1        0.0123
     36 N           4.6594    6.7345    4.6258 N.am    1  LIG1       -0.3151
     37 C           5.0152    7.7248    3.7484 C.2     1  LIG1        0.2162
     38 O           5.6616    8.7145    4.0518 O.2     1  LIG1       -0.2755
     39 C           3.9394    8.3474   -0.7595 C.2     1  LIG1        0.2079
     40 O           4.1785    7.2008   -1.1600 O.2     1  LIG1       -0.2879
     41 C           4.5036    9.5566   -1.3814 C.ar    1  LIG1        0.1459
     42 N           5.3229    9.5273   -2.4157 N.ar    1  LIG1       -0.2437
     43 C           5.7585   10.8127   -2.7163 C.ar    1  LIG1        0.0433
     44 C           5.2683   11.8264   -1.9108 C.ar    1  LIG1        0.0395
     45 C           5.5440   13.2724   -1.8876 C.ar    1  LIG1       -0.0098
     46 C           5.9253   13.9566   -3.0511 C.ar    1  LIG1       -0.0535
     47 C           6.1690   15.3360   -3.0235 C.ar    1  LIG1       -0.0612
     48 C           6.0402   16.0507   -1.8343 C.ar    1  LIG1       -0.0617
     49 C           5.6810   15.3878   -0.6671 C.ar    1  LIG1       -0.0612
     50 C           5.4418   14.0123   -0.6944 C.ar    1  LIG1       -0.0535
     51 S           4.1401   11.1320   -0.8166 S.2     1  LIG1       -0.0643
     52 H           0.9470    7.3900    4.6970 H       1  LIG1        0.0232
     53 H          -0.2173    6.9313    3.4295 H       1  LIG1        0.0232
     54 H          -0.7369    7.0738    5.1040 H       1  LIG1        0.0232
     55 H          -1.5448    9.0042    3.8919 H       1  LIG1        0.0296
     56 H           0.5664    9.8970    5.9966 H       1  LIG1        0.0232
     57 H          -0.8663    8.9900    6.3092 H       1  LIG1        0.0232
     58 H          -1.0652   10.5668    5.6559 H       1  LIG1        0.0232
     59 H           1.2730    9.6297    2.8127 H       1  LIG1        0.0290
     60 H          -0.1190   10.6230    2.6477 H       1  LIG1        0.0290
     61 H          -1.7728    7.7818    0.7433 H       1  LIG1        0.1495
     62 H          -4.4439   11.3245   -0.6241 H       1  LIG1        0.1528
     63 H          -2.5549   11.5923   -4.7543 H       1  LIG1        0.0749
     64 H          -0.8510   11.3487   -4.3827 H       1  LIG1        0.0749
     65 H          -3.7942   13.4818   -3.4892 H       1  LIG1        0.0621
     66 H          -3.6995   15.2382   -1.8074 H       1  LIG1        0.0618
     67 H          -1.5231   16.2992   -1.2403 H       1  LIG1        0.0618
     68 H           0.5537   15.4920   -2.3420 H       1  LIG1        0.0618
     69 H           0.5054   13.4478   -3.7714 H       1  LIG1        0.0621
     70 H          -1.7592   11.7028    1.9844 H       1  LIG1        0.0318
     71 H          -2.0883   13.6489    0.2765 H       1  LIG1        0.0233
     72 H          -2.4081   13.9380    1.9861 H       1  LIG1        0.0233
     73 H          -3.7579   13.6937    0.8746 H       1  LIG1        0.0233
     74 H          -3.6591   11.8132    3.3029 H       1  LIG1        0.0233
     75 H          -3.9559   10.3671    2.3541 H       1  LIG1        0.0233
     76 H          -4.7851   11.8821    1.9508 H       1  LIG1        0.0233
     77 H           2.2372    6.6199    0.0268 H       1  LIG1        0.1495
     78 H           2.9819    8.8664    2.5797 H       1  LIG1        0.0295
     79 H           4.3969    9.4679    1.7773 H       1  LIG1        0.0295
     80 H           4.1104    5.3087    1.9320 H       1  LIG1        0.0288
     81 H           2.6372    6.1543    2.3773 H       1  LIG1        0.0288
     82 H           4.4352    4.7437    4.1496 H       1  LIG1        0.0462
     83 H           2.9391    5.6081    4.5731 H       1  LIG1        0.0462
     84 H           4.9707    6.7569    5.5903 H       1  LIG1        0.1487
     85 H           6.4696   10.9430   -3.5251 H       1  LIG1        0.0841
     86 H           6.0266   13.4342   -3.9996 H       1  LIG1        0.0624
     87 H           6.4574   15.8560   -3.9341 H       1  LIG1        0.0618
     88 H           6.2240   17.1220   -1.8148 H       1  LIG1        0.0618
     89 H           5.5887   15.9344    0.2682 H       1  LIG1        0.0618
     90 H           5.1817   13.5290    0.2444 H       1  LIG1        0.0624
@<TRIPOS>BOND
     1     1     2    1
     2     2     3    1
     3     2     4    1
     4     5     7    1
     5     7     8   am
     6     8     9    2
     7     8    10    1
     8    10    11    1
     9    10    12    1
    10    12    13   am
    11    13    14    2
    12    13    15    1
    13    15    16    1
    14    16    17    1
    15    17    18   ar
    16    18    19   ar
    17    19    20   ar
    18    20    21   ar
    19    21    22   ar
    20    17    22   ar
    21    10    23    1
    22    23    24    1
    23    23    25    1
    24     5    26    1
    25    26    27    2
    26    26    28   am
    27    28    29    1
    28    29    30    1
    29    29    31    1
    30    32    34    1
    31    34    35    1
    32    35    36    1
    33    36    37   am
    34    32    37    1
    35    37    38    2
    36    29    39    1
    37    39    40    2
    38    39    41    1
    39    41    42   ar
    40    42    43   ar
    41    43    44   ar
    42    44    45    1
    43    45    46   ar
    44    46    47   ar
    45    47    48   ar
    46    48    49   ar
    47    49    50   ar
    48    45    50   ar
    49    44    51   ar
    50    41    51   ar
    51     5     6    1
    52     5     4    1
    53    32    33    1
    54    32    31    1
    55     1    52    1
    56     1    53    1
    57     1    54    1
    58     2    55    1
    59     3    56    1
    60     3    57    1
    61     3    58    1
    62     4    59    1
    63     4    60    1
    64     7    61    1
    65    12    62    1
    66    16    63    1
    67    16    64    1
    68    18    65    1
    69    19    66    1
    70    20    67    1
    71    21    68    1
    72    22    69    1
    73    23    70    1
    74    24    71    1
    75    24    72    1
    76    24    73    1
    77    25    74    1
    78    25    75    1
    79    25    76    1
    80    28    77    1
    81    31    78    1
    82    31    79    1
    83    34    80    1
    84    34    81    1
    85    35    82    1
    86    35    83    1
    87    36    84    1
    88    43    85    1
    89    46    86    1
    90    47    87    1
    91    48    88    1
    92    49    89    1
    93    50    90    1
@<TRIPOS>MOLECULE
*****
 86 89 0 0 0
SMALL
GASTEIGER

@<TRIPOS>ATOM
      1 C           5.1167   10.1736    3.1935 C.3     1  LIG1       -0.0626
      2 C           4.7204    9.6008    1.8338 C.3     1  LIG1       -0.0446
      3 C           3.3896   10.1708    1.3432 C.3     1  LIG1       -0.0626
      4 C           5.8237    9.8275    0.7973 C.3     1  LIG1       -0.0236
      5 C           5.5305    9.2875   -0.6238 C.3     1  LIG1        0.0996
      6 H           4.6701    9.7812   -1.0829 H       1  LIG1        0.0594
      7 N           6.6763    9.6562   -1.4426 N.am    1  LIG1       -0.3025
      8 C           6.7064    9.4685   -2.8087 C.2     1  LIG1        0.2343
      9 O           5.7131    9.1373   -3.4502 O.2     1  LIG1       -0.2738
     10 C           8.0305    9.8952   -3.4929 C.3     1  LIG1        0.1048
     11 H           8.1228    9.2841   -4.4032 H       1  LIG1        0.0598
     12 N           7.9116   11.3234   -3.8169 N.am    1  LIG1       -0.2696
     13 C           8.3211   11.8718   -5.0078 C.2     1  LIG1        0.4012
     14 O           8.0130   12.9910   -5.3124 O.2     1  LIG1       -0.2265
     15 O           9.1155   11.0124   -5.7356 O.3     1  LIG1       -0.4456
     16 C           8.7109   10.8962   -7.1023 C.3     1  LIG1        0.1191
     17 C           9.1690   11.9830   -8.0375 C.ar    1  LIG1       -0.0103
     18 C           8.7902   11.9313   -9.3881 C.ar    1  LIG1       -0.0554
     19 C           9.1651   12.9503  -10.2651 C.ar    1  LIG1       -0.0614
     20 C           9.9151   14.0301   -9.8017 C.ar    1  LIG1       -0.0617
     21 C          10.3008   14.0879   -8.4668 C.ar    1  LIG1       -0.0614
     22 C           9.9441   13.0621   -7.5973 C.ar    1  LIG1       -0.0554
     23 C           9.2736    9.6622   -2.5942 C.3     1  LIG1       -0.0196
     24 C           9.4302    8.1711   -2.2706 C.3     1  LIG1       -0.0605
     25 C          10.5821   10.2030   -3.1600 C.3     1  LIG1       -0.0605
     26 C           5.3108    7.7372   -0.6427 C.2     1  LIG1        0.2339
     27 O           6.0998    6.9595   -1.1788 O.2     1  LIG1       -0.2738
     28 N           4.1854    7.2896    0.0300 N.am    1  LIG1       -0.3037
     29 C           3.8009    5.8824    0.0743 C.3     1  LIG1        0.0888
     30 H           4.5777    5.3372   -0.4780 H       1  LIG1        0.0582
     31 C           3.8428    5.2953    1.5136 C.3     1  LIG1       -0.0160
     32 C           2.9356    5.9065    2.5978 C.3     1  LIG1        0.0390
     33 H           3.1315    6.9735    2.7322 H       1  LIG1        0.0395
     34 C           3.1114    5.1762    3.9507 C.3     1  LIG1       -0.0262
     35 C           2.0373    4.1003    3.9561 C.3     1  LIG1        0.0123
     36 N           1.0051    4.6688    3.1542 N.am    1  LIG1       -0.3151
     37 C           1.4550    5.6941    2.3593 C.2     1  LIG1        0.2162
     38 O           0.7636    6.3069    1.5714 O.2     1  LIG1       -0.2755
     39 C           2.4987    5.4755   -0.6559 C.2     1  LIG1        0.2079
     40 O           2.2583    4.2649   -0.7626 O.2     1  LIG1       -0.2879
     41 C           1.5783    6.5184   -1.1116 C.ar    1  LIG1        0.1465
     42 N           1.8119    7.8183   -1.0461 N.ar    1  LIG1       -0.2360
     43 C           0.7027    8.5122   -1.5209 C.ar    1  LIG1        0.0790
     44 C           0.5874    9.9125   -1.6545 C.ar    1  LIG1       -0.0352
     45 C          -0.5758   10.4682   -2.2023 C.ar    1  LIG1       -0.0597
     46 C          -1.6439    9.6547   -2.5648 C.ar    1  LIG1       -0.0606
     47 C          -1.5733    8.2697   -2.4006 C.ar    1  LIG1       -0.0459
     48 C          -0.3790    7.7189   -1.9080 C.ar    1  LIG1        0.0396
     49 S           0.0315    6.0652   -1.7025 S.2     1  LIG1       -0.0643
     50 H           4.4360    9.8087    3.9705 H       1  LIG1        0.0232
     51 H           5.0917   11.2668    3.1972 H       1  LIG1        0.0232
     52 H           6.1281    9.8539    3.4706 H       1  LIG1        0.0232
     53 H           4.6254    8.5259    2.0000 H       1  LIG1        0.0296
     54 H           3.4076   11.2635    1.3207 H       1  LIG1        0.0232
     55 H           2.5605    9.8293    1.9671 H       1  LIG1        0.0232
     56 H           3.1543    9.8565    0.3250 H       1  LIG1        0.0232
     57 H           6.7554    9.3743    1.1705 H       1  LIG1        0.0290
     58 H           6.0325   10.9060    0.7333 H       1  LIG1        0.0290
     59 H           7.5391    9.7725   -0.9392 H       1  LIG1        0.1495
     60 H           7.1372   11.8489   -3.4346 H       1  LIG1        0.1528
     61 H           7.6224   10.7814   -7.1440 H       1  LIG1        0.0749
     62 H           9.1469    9.9450   -7.4508 H       1  LIG1        0.0749
     63 H           8.1948   11.1010   -9.7634 H       1  LIG1        0.0621
     64 H           8.8661   12.9067  -11.3087 H       1  LIG1        0.0618
     65 H          10.2003   14.8296  -10.4782 H       1  LIG1        0.0618
     66 H          10.8705   14.9312   -8.0880 H       1  LIG1        0.0618
     67 H          10.2511   13.1374   -6.5574 H       1  LIG1        0.0621
     68 H           9.1502   10.2154   -1.6575 H       1  LIG1        0.0318
     69 H           9.7545    7.6067   -3.1509 H       1  LIG1        0.0233
     70 H           8.4983    7.7187   -1.9214 H       1  LIG1        0.0233
     71 H          10.1683    8.0310   -1.4758 H       1  LIG1        0.0233
     72 H          10.8747    9.6801   -4.0736 H       1  LIG1        0.0233
     73 H          11.3789   10.0777   -2.4186 H       1  LIG1        0.0233
     74 H          10.5136   11.2756   -3.3646 H       1  LIG1        0.0233
     75 H           3.3950    7.9310    0.0297 H       1  LIG1        0.1495
     76 H           4.8788    5.3765    1.8726 H       1  LIG1        0.0295
     77 H           3.6303    4.2207    1.4449 H       1  LIG1        0.0295
     78 H           2.9162    5.8836    4.7677 H       1  LIG1        0.0288
     79 H           4.1113    4.7612    4.1076 H       1  LIG1        0.0288
     80 H           1.6543    3.8846    4.9574 H       1  LIG1        0.0462
     81 H           2.3690    3.1739    3.4792 H       1  LIG1        0.0462
     82 H           0.0630    4.3094    3.0491 H       1  LIG1        0.1487
     83 H           1.4100   10.5548   -1.3582 H       1  LIG1        0.0639
     84 H          -0.6416   11.5438   -2.3507 H       1  LIG1        0.0618
     85 H          -2.5427   10.0972   -2.9894 H       1  LIG1        0.0618
     86 H          -2.4089    7.6326   -2.6741 H       1  LIG1        0.0629
@<TRIPOS>BOND
     1     1     2    1
     2     2     3    1
     3     2     4    1
     4     4     5    1
     5     5     6    1
     6     5     7    1
     7     7     8   am
     8     8     9    2
     9     8    10    1
    10    10    11    1
    11    10    12    1
    12    12    13   am
    13    13    14    2
    14    13    15    1
    15    15    16    1
    16    16    17    1
    17    17    18   ar
    18    18    19   ar
    19    19    20   ar
    20    20    21   ar
    21    21    22   ar
    22    17    22   ar
    23    10    23    1
    24    23    24    1
    25    23    25    1
    26     5    26    1
    27    26    27    2
    28    26    28   am
    29    28    29    1
    30    29    30    1
    31    29    31    1
    32    32    34    1
    33    34    35    1
    34    35    36    1
    35    36    37   am
    36    32    37    1
    37    37    38    2
    38    29    39    1
    39    39    40    2
    40    39    41    1
    41    41    42   ar
    42    42    43   ar
    43    43    44   ar
    44    44    45   ar
    45    45    46   ar
    46    46    47   ar
    47    47    48   ar
    48    43    48   ar
    49    48    49   ar
    50    41    49   ar
    51    32    33    1
    52    32    31    1
    53     1    50    1
    54     1    51    1
    55     1    52    1
    56     2    53    1
    57     3    54    1
    58     3    55    1
    59     3    56    1
    60     4    57    1
    61     4    58    1
    62     7    59    1
    63    12    60    1
    64    16    61    1
    65    16    62    1
    66    18    63    1
    67    19    64    1
    68    20    65    1
    69    21    66    1
    70    22    67    1
    71    23    68    1
    72    24    69    1
    73    24    70    1
    74    24    71    1
    75    25    72    1
    76    25    73    1
    77    25    74    1
    78    28    75    1
    79    31    76    1
    80    31    77    1
    81    34    78    1
    82    34    79    1
    83    35    80    1
    84    35    81    1
    85    36    82    1
    86    44    83    1
    87    45    84    1
    88    46    85    1
    89    47    86    1
@<TRIPOS>MOLECULE
*****
 86 88 0 0 0
SMALL
GASTEIGER

@<TRIPOS>ATOM
      1 C           1.1780   -7.5196   -4.3832 C.3     1  LIG1       -0.0216
      2 C           0.4265   -7.9014   -3.1692 C.ar    1  LIG1        0.0491
      3 N           0.2866   -7.0995   -2.0431 N.ar    1  LIG1       -0.2410
      4 C          -0.6201   -7.5913   -1.2109 C.ar    1  LIG1        0.1458
      5 C          -1.1549   -6.9771    0.0397 C.2     1  LIG1        0.2079
      6 O          -1.9304   -7.6062    0.7798 O.2     1  LIG1       -0.2879
      7 C          -0.7688   -5.5122    0.5333 C.3     1  LIG1        0.0888
      8 H          -0.4591   -5.7300    1.5783 H       1  LIG1        0.0582
      9 C          -2.0041   -4.5154    0.7465 C.3     1  LIG1       -0.0160
     10 C          -2.4641   -3.7021   -0.5008 C.3     1  LIG1        0.0390
     11 H          -2.7361   -4.4232   -1.2841 H       1  LIG1        0.0395
     12 C          -1.3907   -2.6740   -0.8961 C.3     1  LIG1       -0.0262
     13 C          -2.0583   -1.5683   -1.6188 C.3     1  LIG1        0.0123
     14 N          -3.2639   -1.4738   -0.9073 N.am    1  LIG1       -0.3151
     15 C          -3.6525   -2.7139   -0.4052 C.2     1  LIG1        0.2162
     16 O          -4.7953   -2.9438   -0.0445 O.2     1  LIG1       -0.2755
     17 N           0.4499   -4.8671   -0.0092 N.am    1  LIG1       -0.3037
     18 C           0.5735   -4.5207   -1.3543 C.2     1  LIG1        0.2339
     19 O          -0.3330   -4.7733   -2.1524 O.2     1  LIG1       -0.2738
     20 C           1.9355   -3.9205   -1.8440 C.3     1  LIG1        0.0996
     21 H           2.4917   -3.8911   -0.8945 H       1  LIG1        0.0594
     22 C           2.1589   -2.4209   -2.2764 C.3     1  LIG1       -0.0236
     23 C           1.9111   -1.6436   -3.6331 C.3     1  LIG1       -0.0446
     24 C           0.4902   -1.7082   -4.1660 C.3     1  LIG1       -0.0626
     25 C           2.1652   -0.1462   -3.3522 C.3     1  LIG1       -0.0626
     26 N           2.5875   -5.0714   -2.4656 N.am    1  LIG1       -0.3025
     27 C           3.1648   -5.4225   -3.6484 C.2     1  LIG1        0.2343
     28 O           3.7157   -6.5280   -3.6579 O.2     1  LIG1       -0.2738
     29 C           3.2212   -4.4115   -4.8371 C.3     1  LIG1        0.1048
     30 H           2.4750   -3.7357   -4.4633 H       1  LIG1        0.0598
     31 N           4.5486   -3.8205   -4.6175 N.am    1  LIG1       -0.2696
     32 C           5.4761   -3.1449   -5.3923 C.2     1  LIG1        0.4012
     33 O           5.4323   -2.8880   -6.5320 O.2     1  LIG1       -0.2265
     34 O           6.4942   -2.7707   -4.5318 O.3     1  LIG1       -0.4456
     35 C           7.6592   -2.1210   -5.1025 C.3     1  LIG1        0.1191
     36 C           7.9980   -0.7811   -4.4521 C.ar    1  LIG1       -0.0103
     37 C           9.2145   -0.5370   -3.7798 C.ar    1  LIG1       -0.0554
     38 C           9.5829    0.7674   -3.4044 C.ar    1  LIG1       -0.0614
     39 C           8.7568    1.8438   -3.7182 C.ar    1  LIG1       -0.0617
     40 C           7.5384    1.6106   -4.3510 C.ar    1  LIG1       -0.0614
     41 C           7.1509    0.3090   -4.6878 C.ar    1  LIG1       -0.0554
     42 C           2.5828   -4.6649   -6.2524 C.3     1  LIG1       -0.0196
     43 C           2.8423   -3.6302   -7.3646 C.3     1  LIG1       -0.0605
     44 C           2.7221   -6.0775   -6.7986 C.3     1  LIG1       -0.0605
     45 S          -1.1551   -9.1821   -1.6802 S.2     1  LIG1       -0.0693
     46 C          -0.1539   -9.1363   -3.0581 C.ar    1  LIG1        0.0098
     47 C           0.0606  -10.2606   -4.0063 C.3     1  LIG1       -0.0317
     48 H           0.5273   -7.4937   -5.2594 H       1  LIG1        0.0293
     49 H           2.0102   -8.2112   -4.5770 H       1  LIG1        0.0293
     50 H           1.5222   -6.5097   -4.3529 H       1  LIG1        0.0293
     51 H          -1.7219   -3.7955    1.5337 H       1  LIG1        0.0295
     52 H          -2.8495   -5.0659    1.1891 H       1  LIG1        0.0295
     53 H          -0.6874   -2.9207   -1.6539 H       1  LIG1        0.0288
     54 H          -0.8177   -2.3566   -0.0207 H       1  LIG1        0.0288
     55 H          -2.2537   -1.8488   -2.6648 H       1  LIG1        0.0462
     56 H          -1.4361   -0.6727   -1.5807 H       1  LIG1        0.0462
     57 H          -3.9167   -0.7179   -1.0463 H       1  LIG1        0.1487
     58 H           1.2128   -4.7075    0.6424 H       1  LIG1        0.1495
     59 H           3.2165   -2.2184   -2.0425 H       1  LIG1        0.0290
     60 H           1.5996   -1.8359   -1.5313 H       1  LIG1        0.0290
     61 H           2.6207   -1.9131   -4.4252 H       1  LIG1        0.0296
     62 H          -0.1403   -1.8615   -3.3081 H       1  LIG1        0.0232
     63 H           0.3118   -2.4909   -4.9057 H       1  LIG1        0.0232
     64 H           0.1567   -0.7675   -4.6275 H       1  LIG1        0.0232
     65 H           1.8943    0.0909   -2.3214 H       1  LIG1        0.0232
     66 H           1.5531    0.5156   -3.9758 H       1  LIG1        0.0232
     67 H           3.2122    0.1169   -3.5203 H       1  LIG1        0.0232
     68 H           2.3587   -5.9299   -1.9590 H       1  LIG1        0.1495
     69 H           4.7942   -3.7506   -3.6493 H       1  LIG1        0.1528
     70 H           7.5525   -1.9478   -6.1795 H       1  LIG1        0.0749
     71 H           8.5139   -2.7969   -4.9784 H       1  LIG1        0.0749
     72 H           9.9199   -1.3415   -3.5786 H       1  LIG1        0.0621
     73 H          10.5322    0.9547   -2.9037 H       1  LIG1        0.0618
     74 H           9.0653    2.8620   -3.4887 H       1  LIG1        0.0618
     75 H           6.8999    2.4475   -4.6210 H       1  LIG1        0.0618
     76 H           6.2067    0.1536   -5.2032 H       1  LIG1        0.0621
     77 H           1.4948   -4.5453   -6.0924 H       1  LIG1        0.0318
     78 H           3.8450   -3.7147   -7.7822 H       1  LIG1        0.0233
     79 H           2.6601   -2.6011   -7.0340 H       1  LIG1        0.0233
     80 H           2.1760   -3.8036   -8.2210 H       1  LIG1        0.0233
     81 H           3.4139   -6.6723   -6.2054 H       1  LIG1        0.0233
     82 H           3.0366   -6.1073   -7.8452 H       1  LIG1        0.0233
     83 H           1.7390   -6.5611   -6.7765 H       1  LIG1        0.0233
     84 H          -0.7299  -11.0042   -3.9543 H       1  LIG1        0.0283
     85 H           1.0279  -10.7304   -3.7882 H       1  LIG1        0.0283
     86 H           0.1200   -9.8991   -5.0430 H       1  LIG1        0.0283
@<TRIPOS>BOND
     1     1     2    1
     2     2     3   ar
     3     3     4   ar
     4     4     5    1
     5     5     6    2
     6     7     9    1
     7    10    12    1
     8    12    13    1
     9    13    14    1
    10    14    15   am
    11    10    15    1
    12    15    16    2
    13     7    17    1
    14    17    18   am
    15    18    19    2
    16    20    22    1
    17    22    23    1
    18    23    24    1
    19    23    25    1
    20    20    26    1
    21    26    27   am
    22    27    28    2
    23    27    29    1
    24    29    30    1
    25    29    31    1
    26    31    32   am
    27    32    33    2
    28    32    34    1
    29    34    35    1
    30    35    36    1
    31    36    37   ar
    32    37    38   ar
    33    38    39   ar
    34    39    40   ar
    35    40    41   ar
    36    36    41   ar
    37    29    42    1
    38    42    43    1
    39    42    44    1
    40     4    45   ar
    41    45    46   ar
    42     2    46   ar
    43    46    47    1
    44     7     8    1
    45     7     5    1
    46    10    11    1
    47    10     9    1
    48    20    21    1
    49    20    18    1
    50     1    48    1
    51     1    49    1
    52     1    50    1
    53     9    51    1
    54     9    52    1
    55    12    53    1
    56    12    54    1
    57    13    55    1
    58    13    56    1
    59    14    57    1
    60    17    58    1
    61    22    59    1
    62    22    60    1
    63    23    61    1
    64    24    62    1
    65    24    63    1
    66    24    64    1
    67    25    65    1
    68    25    66    1
    69    25    67    1
    70    26    68    1
    71    31    69    1
    72    35    70    1
    73    35    71    1
    74    37    72    1
    75    38    73    1
    76    39    74    1
    77    40    75    1
    78    41    76    1
    79    42    77    1
    80    43    78    1
    81    43    79    1
    82    43    80    1
    83    44    81    1
    84    44    82    1
    85    44    83    1
    86    47    84    1
    87    47    85    1
    88    47    86    1
@<TRIPOS>MOLECULE
*****
 86 89 0 0 0
SMALL
GASTEIGER

@<TRIPOS>ATOM
      1 C           0.2720    5.0599   -0.9703 C.3     1  LIG1       -0.0626
      2 C           1.1512    5.7877   -1.9958 C.3     1  LIG1       -0.0446
      3 C           2.5641    5.8916   -1.4215 C.3     1  LIG1       -0.0626
      4 C           1.1463    5.1166   -3.3953 C.3     1  LIG1       -0.0236
      5 C           1.9739    5.8851   -4.4566 C.3     1  LIG1        0.0996
      6 H           3.0022    6.0069   -4.1052 H       1  LIG1        0.0594
      7 N           1.3957    7.2162   -4.6795 N.am    1  LIG1       -0.3025
      8 C           2.1891    8.3316   -4.8600 C.2     1  LIG1        0.2343
      9 O           3.4206    8.2357   -4.8706 O.2     1  LIG1       -0.2738
     10 C           1.4424    9.6906   -4.8626 C.3     1  LIG1        0.1048
     11 H           0.4231    9.4972   -5.1948 H       1  LIG1        0.0598
     12 N           1.3642   10.2010   -3.4753 N.am    1  LIG1       -0.2696
     13 C           0.3947    9.8863   -2.5487 C.2     1  LIG1        0.4012
     14 O           0.3735   10.3534   -1.3836 O.2     1  LIG1       -0.2265
     15 O          -0.4984    9.0475   -3.0723 O.3     1  LIG1       -0.4456
     16 C          -1.8524    9.4599   -2.8681 C.3     1  LIG1        0.1191
     17 C          -2.2792   10.3562   -4.0127 C.ar    1  LIG1       -0.0103
     18 C          -2.8215   11.6176   -3.7437 C.ar    1  LIG1       -0.0554
     19 C          -3.2519   12.4409   -4.7833 C.ar    1  LIG1       -0.0614
     20 C          -3.1237   12.0244   -6.1070 C.ar    1  LIG1       -0.0617
     21 C          -2.5817   10.7738   -6.3931 C.ar    1  LIG1       -0.0614
     22 C          -2.1771    9.9368   -5.3508 C.ar    1  LIG1       -0.0554
     23 C           2.0175   10.7567   -5.8234 C.3     1  LIG1       -0.0196
     24 C           3.4443   11.2127   -5.5087 C.3     1  LIG1       -0.0605
     25 C           1.9570   10.2512   -7.2660 C.3     1  LIG1       -0.0605
     26 C           2.0221    5.1045   -5.7991 C.2     1  LIG1        0.2339
     27 O           1.0101    4.9560   -6.4767 O.2     1  LIG1       -0.2738
     28 N           3.2736    4.6795   -6.1936 N.am    1  LIG1       -0.3037
     29 C           3.6162    3.8190   -7.3380 C.3     1  LIG1        0.0888
     30 H           4.7068    3.9845   -7.3957 H       1  LIG1        0.0582
     31 C           3.5556    2.2755   -7.1140 C.3     1  LIG1       -0.0160
     32 C           4.6813    1.7188   -6.1877 C.3     1  LIG1        0.0390
     33 H           5.6517    2.0025   -6.6211 H       1  LIG1        0.0395
     34 C           4.7211    0.1800   -5.9870 C.3     1  LIG1       -0.0262
     35 C           4.5953   -0.0433   -4.4869 C.3     1  LIG1        0.0123
     36 N           5.0053    1.1937   -3.9113 N.am    1  LIG1       -0.3151
     37 C           4.6902    2.2342   -4.7557 C.2     1  LIG1        0.2162
     38 O           4.5060    3.3758   -4.3699 O.2     1  LIG1       -0.2755
     39 C           3.1904    4.4063   -8.7155 C.2     1  LIG1        0.2079
     40 O           4.0326    5.0949   -9.3150 O.2     1  LIG1       -0.2879
     41 C           1.8365    4.2234   -9.2418 C.ar    1  LIG1        0.1465
     42 N           0.8970    3.4476   -8.7408 N.ar    1  LIG1       -0.2360
     43 C          -0.2923    3.6294   -9.4500 C.ar    1  LIG1        0.0790
     44 C          -1.5408    3.0374   -9.1592 C.ar    1  LIG1       -0.0352
     45 C          -2.6176    3.1938  -10.0439 C.ar    1  LIG1       -0.0597
     46 C          -2.4863    3.9791  -11.1841 C.ar    1  LIG1       -0.0606
     47 C          -1.2868    4.6434  -11.4545 C.ar    1  LIG1       -0.0459
     48 C          -0.2017    4.4465  -10.5788 C.ar    1  LIG1        0.0396
     49 S           1.3865    5.0917  -10.6656 S.2     1  LIG1       -0.0643
     50 H           0.1531    5.6876   -0.0768 H       1  LIG1        0.0232
     51 H           0.7250    4.1178   -0.6424 H       1  LIG1        0.0232
     52 H          -0.7298    4.8497   -1.3558 H       1  LIG1        0.0232
     53 H           0.7423    6.7992   -2.0964 H       1  LIG1        0.0296
     54 H           3.0312    4.9024   -1.3624 H       1  LIG1        0.0232
     55 H           2.5427    6.3175   -0.4131 H       1  LIG1        0.0232
     56 H           3.2008    6.5384   -2.0295 H       1  LIG1        0.0232
     57 H           0.1068    5.0302   -3.7428 H       1  LIG1        0.0290
     58 H           1.5255    4.0900   -3.3136 H       1  LIG1        0.0290
     59 H           0.4018    7.2762   -4.8756 H       1  LIG1        0.1495
     60 H           2.0656   10.8630   -3.1610 H       1  LIG1        0.1528
     61 H          -1.9769    9.9598   -1.8967 H       1  LIG1        0.0749
     62 H          -2.4955    8.5781   -2.8690 H       1  LIG1        0.0749
     63 H          -2.9299   11.9576   -2.7162 H       1  LIG1        0.0621
     64 H          -3.7027   13.4031   -4.5551 H       1  LIG1        0.0618
     65 H          -3.4638   12.6689   -6.9132 H       1  LIG1        0.0618
     66 H          -2.4945   10.4437   -7.4261 H       1  LIG1        0.0618
     67 H          -1.7803    8.9520   -5.5909 H       1  LIG1        0.0621
     68 H           1.3758   11.6506   -5.7570 H       1  LIG1        0.0318
     69 H           4.1358   10.3712   -5.4478 H       1  LIG1        0.0233
     70 H           3.4971   11.7662   -4.5668 H       1  LIG1        0.0233
     71 H           3.8210   11.8714   -6.2992 H       1  LIG1        0.0233
     72 H           2.6483    9.4156   -7.4160 H       1  LIG1        0.0233
     73 H           2.2393   11.0506   -7.9603 H       1  LIG1        0.0233
     74 H           0.9521    9.9083   -7.5324 H       1  LIG1        0.0233
     75 H           4.0047    4.7492   -5.4839 H       1  LIG1        0.1495
     76 H           3.6971    1.7896   -8.0919 H       1  LIG1        0.0295
     77 H           2.5723    1.9690   -6.7469 H       1  LIG1        0.0295
     78 H           5.6952   -0.2091   -6.3181 H       1  LIG1        0.0288
     79 H           3.9549   -0.3699   -6.5407 H       1  LIG1        0.0288
     80 H           5.2014   -0.8671   -4.0973 H       1  LIG1        0.0462
     81 H           3.5500   -0.1957   -4.1991 H       1  LIG1        0.0462
     82 H           4.9722    1.3809   -2.9159 H       1  LIG1        0.1487
     83 H          -1.6504    2.4384   -8.2612 H       1  LIG1        0.0639
     84 H          -3.5565    2.6799   -9.8465 H       1  LIG1        0.0618
     85 H          -3.3223    4.0756  -11.8751 H       1  LIG1        0.0618
     86 H          -1.1879    5.2683  -12.3382 H       1  LIG1        0.0629
@<TRIPOS>BOND
     1     1     2    1
     2     2     3    1
     3     2     4    1
     4     5     7    1
     5     7     8   am
     6     8     9    2
     7     8    10    1
     8    10    11    1
     9    10    12    1
    10    12    13   am
    11    13    14    2
    12    13    15    1
    13    15    16    1
    14    16    17    1
    15    17    18   ar
    16    18    19   ar
    17    19    20   ar
    18    20    21   ar
    19    21    22   ar
    20    17    22   ar
    21    10    23    1
    22    23    24    1
    23    23    25    1
    24     5    26    1
    25    26    27    2
    26    26    28   am
    27    28    29    1
    28    29    30    1
    29    29    31    1
    30    32    34    1
    31    34    35    1
    32    35    36    1
    33    36    37   am
    34    32    37    1
    35    37    38    2
    36    29    39    1
    37    39    40    2
    38    39    41    1
    39    41    42   ar
    40    42    43   ar
    41    43    44   ar
    42    44    45   ar
    43    45    46   ar
    44    46    47   ar
    45    47    48   ar
    46    43    48   ar
    47    48    49   ar
    48    41    49   ar
    49     5     6    1
    50     5     4    1
    51    32    33    1
    52    32    31    1
    53     1    50    1
    54     1    51    1
    55     1    52    1
    56     2    53    1
    57     3    54    1
    58     3    55    1
    59     3    56    1
    60     4    57    1
    61     4    58    1
    62     7    59    1
    63    12    60    1
    64    16    61    1
    65    16    62    1
    66    18    63    1
    67    19    64    1
    68    20    65    1
    69    21    66    1
    70    22    67    1
    71    23    68    1
    72    24    69    1
    73    24    70    1
    74    24    71    1
    75    25    72    1
    76    25    73    1
    77    25    74    1
    78    28    75    1
    79    31    76    1
    80    31    77    1
    81    34    78    1
    82    34    79    1
    83    35    80    1
    84    35    81    1
    85    36    82    1
    86    44    83    1
    87    45    84    1
    88    46    85    1
    89    47    86    1
@<TRIPOS>MOLECULE
*****
 94 95 0 0 0
SMALL
GASTEIGER

@<TRIPOS>ATOM
      1 C           3.5552   -2.2543   -2.3289 C.3     1  LIG1        0.0817
      2 O           3.8538   -3.3791   -1.5299 O.3     1  LIG1       -0.4666
      3 C           4.3433   -4.4934   -2.1237 C.2     1  LIG1        0.3274
      4 O           3.8530   -5.0723   -3.0808 O.2     1  LIG1       -0.2488
      5 C           5.5675   -4.9358   -1.3061 C.3     1  LIG1        0.1211
      6 H           6.2456   -5.4113   -2.0248 H       1  LIG1        0.0614
      7 C           5.1879   -5.9436   -0.1956 C.3     1  LIG1       -0.0129
      8 C           4.2720   -5.4100    0.9351 C.3     1  LIG1        0.0392
      9 H           4.7156   -4.5240    1.3963 H       1  LIG1        0.0395
     10 C           4.0007   -6.4736    2.0211 C.3     1  LIG1       -0.0262
     11 C           2.7717   -7.2316    1.5306 C.3     1  LIG1        0.0123
     12 N           2.0908   -6.2859    0.7097 N.am    1  LIG1       -0.3151
     13 C           2.8171   -5.1254    0.5541 C.2     1  LIG1        0.2162
     14 O           2.3196   -4.0838    0.2440 O.2     1  LIG1       -0.2755
     15 N           6.2623   -3.7333   -0.7536 N.am    1  LIG1       -0.3008
     16 C           7.6364   -3.5730   -0.6897 C.2     1  LIG1        0.2340
     17 O           8.4103   -4.4623   -1.0424 O.2     1  LIG1       -0.2738
     18 C           8.1674   -2.1756   -0.2102 C.3     1  LIG1        0.0997
     19 H           7.3656   -1.7278    0.3956 H       1  LIG1        0.0594
     20 C           8.3522   -1.2024   -1.4326 C.3     1  LIG1       -0.0236
     21 C           9.3104   -1.5090   -2.6218 C.3     1  LIG1       -0.0446
     22 C           9.1668   -0.4058   -3.6986 C.3     1  LIG1       -0.0626
     23 C          10.7894   -1.5720   -2.2452 C.3     1  LIG1       -0.0626
     24 N           9.3642   -2.2850    0.6904 N.am    1  LIG1       -0.3024
     25 C           9.2535   -2.4602    2.0813 C.2     1  LIG1        0.2365
     26 O           8.1445   -2.4142    2.6163 O.2     1  LIG1       -0.2737
     27 C          10.6051   -2.6143    2.9387 C.3     1  LIG1        0.1255
     28 H          11.3684   -2.9648    2.2315 H       1  LIG1        0.0621
     29 N          11.1413   -1.3225    3.5133 N.am    1  LIG1       -0.3003
     30 C          12.2703   -0.6698    3.0282 C.2     1  LIG1        0.2343
     31 O          12.9066   -1.1186    2.0710 O.2     1  LIG1       -0.2738
     32 C          12.7482    0.6527    3.7632 C.3     1  LIG1        0.1016
     33 H          12.2881    0.7059    4.7567 H       1  LIG1        0.0597
     34 N          14.2193    0.5263    3.9952 N.am    1  LIG1       -0.3040
     35 C          15.0569    1.4193    4.6349 C.2     1  LIG1        0.2105
     36 C          16.5016    0.9487    4.7186 C.3     1  LIG1        0.0122
     37 O          14.6984    2.4860    5.1213 O.2     1  LIG1       -0.2761
     38 C          12.3850    1.9286    2.9420 C.3     1  LIG1       -0.0197
     39 C          13.0402    1.9679    1.5542 C.3     1  LIG1       -0.0605
     40 C          10.8754    2.1383    2.7545 C.3     1  LIG1       -0.0605
     41 C          10.4913   -3.7774    4.0493 C.3     1  LIG1        0.0831
     42 H          10.3631   -4.7181    3.4969 H       1  LIG1        0.0617
     43 C          11.7952   -3.8720    4.8689 C.3     1  LIG1       -0.0364
     44 O           9.3553   -3.6542    4.9513 O.3     1  LIG1       -0.3699
     45 C           9.1968   -4.7614    5.8751 C.3     1  LIG1        0.0731
     46 C           7.9587   -4.7071    6.7599 C.ar    1  LIG1       -0.0219
     47 C           6.7313   -4.2010    6.3214 C.ar    1  LIG1       -0.0564
     48 C           5.6305   -4.1477    7.1910 C.ar    1  LIG1       -0.0614
     49 C           5.7394   -4.6004    8.5064 C.ar    1  LIG1       -0.0617
     50 C           6.9372   -5.1538    8.9437 C.ar    1  LIG1       -0.0614
     51 C           8.0269   -5.2302    8.0698 C.ar    1  LIG1       -0.0564
     52 H           4.1427   -1.4497   -1.8785 H       1  LIG1        0.0661
     53 H           2.4977   -1.9926   -2.2496 H       1  LIG1        0.0661
     54 H           3.8615   -2.3925   -3.3653 H       1  LIG1        0.0661
     55 H           6.1302   -6.2710    0.2678 H       1  LIG1        0.0296
     56 H           4.7464   -6.8384   -0.6536 H       1  LIG1        0.0296
     57 H           3.7442   -5.9489    2.9529 H       1  LIG1        0.0288
     58 H           4.8430   -7.1347    2.2394 H       1  LIG1        0.0288
     59 H           2.1131   -7.5302    2.3519 H       1  LIG1        0.0462
     60 H           3.0188   -8.0979    0.9144 H       1  LIG1        0.0462
     61 H           1.0875   -6.2336    0.5743 H       1  LIG1        0.1487
     62 H           5.6489   -3.0291   -0.3525 H       1  LIG1        0.1496
     63 H           8.6248   -0.2134   -1.0437 H       1  LIG1        0.0290
     64 H           7.3550   -1.0833   -1.8860 H       1  LIG1        0.0290
     65 H           9.0224   -2.4578   -3.0913 H       1  LIG1        0.0296
     66 H           9.5796    0.5488   -3.3488 H       1  LIG1        0.0232
     67 H           8.1213   -0.2375   -3.9752 H       1  LIG1        0.0232
     68 H           9.7089   -0.6771   -4.6135 H       1  LIG1        0.0232
     69 H          11.1021   -0.6685   -1.7104 H       1  LIG1        0.0232
     70 H          11.4127   -1.6467   -3.1461 H       1  LIG1        0.0232
     71 H          11.0142   -2.4446   -1.6316 H       1  LIG1        0.0232
     72 H          10.1987   -2.6538    0.2557 H       1  LIG1        0.1495
     73 H          10.7413   -1.0168    4.3936 H       1  LIG1        0.1496
     74 H          14.6407   -0.3241    3.6432 H       1  LIG1        0.1494
     75 H          16.6709    0.0739    4.0846 H       1  LIG1        0.0322
     76 H          16.7427    0.6760    5.7510 H       1  LIG1        0.0322
     77 H          17.1909    1.7332    4.3874 H       1  LIG1        0.0322
     78 H          12.7548    2.8036    3.4948 H       1  LIG1        0.0318
     79 H          12.3618    1.5846    0.7835 H       1  LIG1        0.0233
     80 H          13.9674    1.3933    1.5035 H       1  LIG1        0.0233
     81 H          13.2782    3.0044    1.2869 H       1  LIG1        0.0233
     82 H          10.3722    1.2190    2.4416 H       1  LIG1        0.0233
     83 H          10.6871    2.8874    1.9739 H       1  LIG1        0.0233
     84 H          10.3997    2.5021    3.6698 H       1  LIG1        0.0233
     85 H          12.6654   -4.0342    4.2289 H       1  LIG1        0.0255
     86 H          11.7774   -4.7052    5.5794 H       1  LIG1        0.0255
     87 H          11.9512   -2.9697    5.4709 H       1  LIG1        0.0255
     88 H          10.0407   -4.7282    6.5701 H       1  LIG1        0.0610
     89 H           9.2139   -5.7239    5.3467 H       1  LIG1        0.0610
     90 H           6.6256   -3.8308    5.3040 H       1  LIG1        0.0621
     91 H           4.6843   -3.7387    6.8449 H       1  LIG1        0.0618
     92 H           4.8929   -4.5270    9.1857 H       1  LIG1        0.0618
     93 H           7.0265   -5.5194    9.9643 H       1  LIG1        0.0618
     94 H           8.9430   -5.6940    8.4308 H       1  LIG1        0.0621
@<TRIPOS>BOND
     1     1     2    1
     2     2     3    1
     3     3     4    2
     4     5     7    1
     5     8    10    1
     6    10    11    1
     7    11    12    1
     8    12    13   am
     9     8    13    1
    10    13    14    2
    11     5    15    1
    12    15    16   am
    13    16    17    2
    14    18    20    1
    15    20    21    1
    16    21    22    1
    17    21    23    1
    18    18    24    1
    19    24    25   am
    20    25    26    2
    21    25    27    1
    22    27    28    1
    23    27    29    1
    24    29    30   am
    25    30    31    2
    26    30    32    1
    27    32    33    1
    28    32    34    1
    29    34    35   am
    30    35    36    1
    31    35    37    2
    32    32    38    1
    33    38    39    1
    34    38    40    1
    35    27    41    1
    36    41    42    1
    37    41    43    1
    38    41    44    1
    39    44    45    1
    40    45    46    1
    41    46    47   ar
    42    47    48   ar
    43    48    49   ar
    44    49    50   ar
    45    50    51   ar
    46    46    51   ar
    47     5     6    1
    48     5     3    1
    49     8     9    1
    50     8     7    1
    51    18    19    1
    52    18    16    1
    53     1    52    1
    54     1    53    1
    55     1    54    1
    56     7    55    1
    57     7    56    1
    58    10    57    1
    59    10    58    1
    60    11    59    1
    61    11    60    1
    62    12    61    1
    63    15    62    1
    64    20    63    1
    65    20    64    1
    66    21    65    1
    67    22    66    1
    68    22    67    1
    69    22    68    1
    70    23    69    1
    71    23    70    1
    72    23    71    1
    73    24    72    1
    74    29    73    1
    75    34    74    1
    76    36    75    1
    77    36    76    1
    78    36    77    1
    79    38    78    1
    80    39    79    1
    81    39    80    1
    82    39    81    1
    83    40    82    1
    84    40    83    1
    85    40    84    1
    86    43    85    1
    87    43    86    1
    88    43    87    1
    89    45    88    1
    90    45    89    1
    91    47    90    1
    92    48    91    1
    93    49    92    1
    94    50    93    1
    95    51    94    1
@<TRIPOS>MOLECULE
*****
 82 83 0 0 0
SMALL
GASTEIGER

@<TRIPOS>ATOM
      1 C          13.4923   -5.7158    1.7517 C.3     1  LIG1        0.0820
      2 O          12.3262   -5.9937    0.9803 O.3     1  LIG1       -0.4649
      3 C          11.9466   -5.0541    0.0839 C.2     1  LIG1        0.3314
      4 O          12.4780   -3.9751   -0.1211 O.2     1  LIG1       -0.2456
      5 C          10.8112   -5.5486   -0.7266 C.2     1  LIG1        0.0203
      6 C           9.9765   -6.4955   -0.2703 C.2     1  LIG1       -0.0572
      7 C           8.8190   -7.0671   -1.0258 C.3     1  LIG1        0.0427
      8 H           9.0238   -6.8815   -2.0924 H       1  LIG1        0.0543
      9 C           7.4922   -6.3180   -0.7608 C.3     1  LIG1       -0.0197
     10 C           6.7222   -6.4354    0.5638 C.3     1  LIG1        0.0389
     11 H           6.4067   -7.4714    0.7206 H       1  LIG1        0.0395
     12 C           5.4583   -5.5297    0.4922 C.3     1  LIG1       -0.0262
     13 C           5.8338   -4.2435    1.2076 C.3     1  LIG1        0.0123
     14 N           6.8266   -4.6626    2.1369 N.am    1  LIG1       -0.3151
     15 C           7.3385   -5.9111    1.8548 C.2     1  LIG1        0.2162
     16 O           8.1006   -6.4940    2.6053 O.2     1  LIG1       -0.2755
     17 N           8.7900   -8.5330   -0.9668 N.am    1  LIG1       -0.3075
     18 C           8.9908   -9.3046    0.1639 C.2     1  LIG1        0.2338
     19 O           9.2548   -8.8151    1.2562 O.2     1  LIG1       -0.2738
     20 C           8.8559  -10.8421   -0.0200 C.3     1  LIG1        0.0996
     21 H           7.8294  -11.0764   -0.3133 H       1  LIG1        0.0594
     22 C           9.2491  -11.6132    1.2756 C.3     1  LIG1       -0.0236
     23 C           8.4235  -11.3231    2.5670 C.3     1  LIG1       -0.0446
     24 C           6.9398  -11.6567    2.4398 C.3     1  LIG1       -0.0626
     25 C           8.9796  -12.1010    3.7687 C.3     1  LIG1       -0.0626
     26 N           9.7538  -11.1749   -1.1431 N.am    1  LIG1       -0.3025
     27 C           9.6030  -12.1854   -2.0669 C.2     1  LIG1        0.2343
     28 O           8.6531  -12.9704   -2.0324 O.2     1  LIG1       -0.2738
     29 C          10.6868  -12.2414   -3.2196 C.3     1  LIG1        0.1048
     30 H          11.0631  -13.2786   -3.2187 H       1  LIG1        0.0598
     31 N          10.0468  -12.1139   -4.5321 N.am    1  LIG1       -0.2696
     32 C           9.3235  -11.0670   -4.9286 C.2     1  LIG1        0.4012
     33 O           9.0006  -10.1159   -4.1986 O.2     1  LIG1       -0.2265
     34 O           9.0154  -11.1501   -6.2517 O.3     1  LIG1       -0.4456
     35 C           8.0253  -10.2314   -6.7622 C.3     1  LIG1        0.1191
     36 C           8.6020   -9.1475   -7.6533 C.ar    1  LIG1       -0.0103
     37 C           7.7478   -8.2171   -8.2770 C.ar    1  LIG1       -0.0554
     38 C           8.2714   -7.1718   -9.0477 C.ar    1  LIG1       -0.0614
     39 C           9.6492   -7.0525   -9.2174 C.ar    1  LIG1       -0.0617
     40 C          10.5017   -7.9816   -8.6282 C.ar    1  LIG1       -0.0614
     41 C           9.9814   -9.0177   -7.8515 C.ar    1  LIG1       -0.0554
     42 C          11.8991  -11.2859   -3.0468 C.3     1  LIG1       -0.0196
     43 C          12.7607  -11.6378   -1.8196 C.3     1  LIG1       -0.0605
     44 C          12.8417  -11.2385   -4.2557 C.3     1  LIG1       -0.0605
     45 H          14.2318   -5.1338    1.1946 H       1  LIG1        0.0661
     46 H          13.9435   -6.6775    2.0143 H       1  LIG1        0.0661
     47 H          13.2091   -5.2031    2.6746 H       1  LIG1        0.0661
     48 H          10.6841   -5.0759   -1.6925 H       1  LIG1        0.0686
     49 H          10.1265   -6.8594    0.7428 H       1  LIG1        0.0593
     50 H           6.7971   -6.6486   -1.5473 H       1  LIG1        0.0293
     51 H           7.6736   -5.2526   -0.9651 H       1  LIG1        0.0293
     52 H           4.6397   -6.0165    1.0357 H       1  LIG1        0.0288
     53 H           5.1055   -5.3320   -0.5251 H       1  LIG1        0.0288
     54 H           4.9904   -3.7947    1.7411 H       1  LIG1        0.0462
     55 H           6.2803   -3.4970    0.5434 H       1  LIG1        0.0462
     56 H           7.0064   -4.2385    3.0404 H       1  LIG1        0.1487
     57 H           8.7615   -9.0321   -1.8576 H       1  LIG1        0.1493
     58 H          10.3050  -11.4003    1.5010 H       1  LIG1        0.0290
     59 H           9.2049  -12.6899    1.0667 H       1  LIG1        0.0290
     60 H           8.4992  -10.2644    2.8332 H       1  LIG1        0.0296
     61 H           6.7956  -12.7160    2.2074 H       1  LIG1        0.0232
     62 H           6.4485  -11.0508    1.6752 H       1  LIG1        0.0232
     63 H           6.4276  -11.4565    3.3902 H       1  LIG1        0.0232
     64 H           9.0220  -13.1743    3.5594 H       1  LIG1        0.0232
     65 H           8.3404  -11.9605    4.6499 H       1  LIG1        0.0232
     66 H           9.9827  -11.7566    4.0385 H       1  LIG1        0.0232
     67 H          10.5683  -10.5838   -1.1946 H       1  LIG1        0.1495
     68 H          10.2236  -12.7859   -5.2512 H       1  LIG1        0.1528
     69 H           7.4462   -9.7774   -5.9589 H       1  LIG1        0.0749
     70 H           7.3461  -10.8519   -7.3599 H       1  LIG1        0.0749
     71 H           6.6674   -8.2862   -8.1586 H       1  LIG1        0.0621
     72 H           7.6084   -6.4431   -9.5097 H       1  LIG1        0.0618
     73 H          10.0620   -6.2359   -9.8046 H       1  LIG1        0.0618
     74 H          11.5770   -7.8992   -8.7612 H       1  LIG1        0.0618
     75 H          10.6709   -9.7188   -7.3907 H       1  LIG1        0.0621
     76 H          11.5160  -10.2653   -2.9273 H       1  LIG1        0.0318
     77 H          13.2552  -12.6065   -1.9420 H       1  LIG1        0.0233
     78 H          12.2032  -11.6799   -0.8816 H       1  LIG1        0.0233
     79 H          13.5353  -10.8742   -1.6848 H       1  LIG1        0.0233
     80 H          13.2090  -12.2342   -4.5224 H       1  LIG1        0.0233
     81 H          13.7123  -10.6120   -4.0245 H       1  LIG1        0.0233
     82 H          12.3551  -10.7937   -5.1280 H       1  LIG1        0.0233
@<TRIPOS>BOND
     1     1     2    1
     2     2     3    1
     3     3     4    2
     4     3     5    1
     5     5     6    2
     6     7     9    1
     7    10    12    1
     8    12    13    1
     9    13    14    1
    10    14    15   am
    11    10    15    1
    12    15    16    2
    13     7    17    1
    14    17    18   am
    15    18    19    2
    16    20    22    1
    17    22    23    1
    18    23    24    1
    19    23    25    1
    20    20    26    1
    21    26    27   am
    22    27    28    2
    23    27    29    1
    24    29    30    1
    25    29    31    1
    26    31    32   am
    27    32    33    2
    28    32    34    1
    29    34    35    1
    30    35    36    1
    31    36    37   ar
    32    37    38   ar
    33    38    39   ar
    34    39    40   ar
    35    40    41   ar
    36    36    41   ar
    37    29    42    1
    38    42    43    1
    39    42    44    1
    40    20    21    1
    41    20    18    1
    42     7     8    1
    43     7     6    1
    44    10    11    1
    45    10     9    1
    46     1    45    1
    47     1    46    1
    48     1    47    1
    49     5    48    1
    50     6    49    1
    51     9    50    1
    52     9    51    1
    53    12    52    1
    54    12    53    1
    55    13    54    1
    56    13    55    1
    57    14    56    1
    58    17    57    1
    59    22    58    1
    60    22    59    1
    61    23    60    1
    62    24    61    1
    63    24    62    1
    64    24    63    1
    65    25    64    1
    66    25    65    1
    67    25    66    1
    68    26    67    1
    69    31    68    1
    70    35    69    1
    71    35    70    1
    72    37    71    1
    73    38    72    1
    74    39    73    1
    75    40    74    1
    76    41    75    1
    77    42    76    1
    78    43    77    1
    79    43    78    1
    80    43    79    1
    81    44    80    1
    82    44    81    1
    83    44    82    1
@<TRIPOS>MOLECULE
*****
 78 80 0 0 0
SMALL
GASTEIGER

@<TRIPOS>ATOM
      1 CD1        11.6247   -2.9993   -7.9582 C.3     1  PHE1       -0.0626
      2 CG         10.1499   -3.4422   -7.9023 C.3     1  PHE1       -0.0446
      3 CD2        10.0367   -4.7230   -8.7202 C.3     1  PHE1       -0.0626
      4 CB          9.6916   -3.5629   -6.4249 C.3     1  PHE1       -0.0236
      5 CA          8.2289   -3.9441   -6.0712 C.3     1  PHE1        0.0996
      6 HA          7.5648   -3.2177   -6.5581 H       1  PHE1        0.0594
      7 N           8.0778   -3.8095   -4.6017 N.am    1  PHE1       -0.3025
      8 C           6.8860   -3.4199   -4.0341 C.2     1  PHE1        0.2344
      9 O           5.9606   -3.1154   -4.7799 O.2     1  PHE1       -0.2737
     10 CA          6.7587   -3.6179   -2.4967 C.3     1  PHE1        0.1064
     11 HA          6.8073   -4.6974   -2.3046 H       1  PHE1        0.0599
     12 CB          5.4338   -3.0600   -1.9273 C.3     1  PHE1       -0.0005
     13 CG          4.1519   -3.6525   -2.4848 C.ar    1  PHE1       -0.0451
     14 CD1         3.5809   -4.8061   -1.9313 C.ar    1  PHE1       -0.0585
     15 CE1         2.3918   -5.3268   -2.4527 C.ar    1  PHE1       -0.0615
     16 CZ          1.7703   -4.7141   -3.5397 C.ar    1  PHE1       -0.0617
     17 CE2         2.3261   -3.5695   -4.0985 C.ar    1  PHE1       -0.0615
     18 CD2         3.4947   -3.0331   -3.5592 C.ar    1  PHE1       -0.0585
     19 N           7.9844   -3.0389   -1.8717 N.am    1  PHE1       -0.2695
     20 C           8.3494   -2.9820   -0.5574 C.2     0  UNK0        0.4012
     21 O           9.3525   -2.4537   -0.2037 O.2     0  UNK0       -0.2265
     22 O           7.3776   -3.5323    0.2432 O.3     0  UNK0       -0.4456
     23 C           7.3830   -3.0328    1.5926 C.3     0  UNK0        0.1191
     24 C           6.6712   -1.6972    1.6384 C.ar    0  UNK0       -0.0103
     25 C           5.2870   -1.6248    1.8502 C.ar    0  UNK0       -0.0554
     26 C           4.6356   -0.3879    1.8604 C.ar    0  UNK0       -0.0614
     27 C           5.3558    0.7860    1.6446 C.ar    0  UNK0       -0.0617
     28 C           6.7268    0.7255    1.4111 C.ar    0  UNK0       -0.0614
     29 C           7.3796   -0.5074    1.4099 C.ar    0  UNK0       -0.0554
     30 C           7.7159   -5.3794   -6.4758 C.2     1  PHE1        0.2339
     31 O           8.4262   -6.2153   -7.0292 O.2     1  PHE1       -0.2738
     32 N           6.3628   -5.6584   -6.2640 N.am    2  UNK2       -0.3044
     33 C           5.7916   -6.9767   -6.6522 C.3     2  UNK2        0.0791
     34 H           6.4058   -7.7609   -6.1982 H       2  UNK2        0.0574
     35 C           5.9249   -7.0515   -8.1742 C.2     2  UNK2        0.1404
     36 O           6.0304   -8.1006   -8.8067 O.2     2  UNK2       -0.2991
     37 C           4.3058   -7.1108   -6.2196 C.3     2  UNK2       -0.0167
     38 C           3.5844   -8.4627   -6.4703 C.3     2  UNK2        0.0390
     39 H           4.0595   -9.2584   -5.8824 H       2  UNK2        0.0395
     40 C           3.4414   -8.9165   -7.9315 C.3     2  UNK2       -0.0262
     41 C           2.1362   -9.6816   -7.9885 C.3     2  UNK2        0.0123
     42 N           1.3432   -9.0267   -7.0022 N.am    2  UNK2       -0.3151
     43 C           2.1167   -8.4074   -6.0386 C.2     2  UNK2        0.2162
     44 O           1.6749   -7.9469   -5.0009 O.2     2  UNK2       -0.2755
     45 HD11       11.9312   -2.8119   -8.9946 H       1  PHE1        0.0232
     46 HD12       12.2872   -3.7757   -7.5569 H       1  PHE1        0.0232
     47 HD13       11.7951   -2.0785   -7.3925 H       1  PHE1        0.0232
     48 HG          9.5530   -2.6644   -8.3945 H       1  PHE1        0.0296
     49 HD21       10.4565   -5.5743   -8.1737 H       1  PHE1        0.0232
     50 HD22       10.5887   -4.6494   -9.6640 H       1  PHE1        0.0232
     51 HD23        8.9955   -4.9226   -8.9848 H       1  PHE1        0.0232
     52 HB1         9.8471   -2.5602   -5.9911 H       1  PHE1        0.0290
     53 HB2        10.3814   -4.2196   -5.8804 H       1  PHE1        0.0290
     54 H           8.9052   -3.9052   -4.0108 H       1  PHE1        0.1495
     55 HB1         5.4094   -1.9685   -2.0321 H       1  PHE1        0.0336
     56 HB2         5.3863   -3.2376   -0.8485 H       1  PHE1        0.0336
     57 HD1         4.0391   -5.2992   -1.0776 H       1  PHE1        0.0620
     58 HE1         1.9429   -6.2159   -2.0159 H       1  PHE1        0.0618
     59 HZ          0.8548   -5.1337   -3.9500 H       1  PHE1        0.0618
     60 HE2         1.8555   -3.0927   -4.9538 H       1  PHE1        0.0618
     61 HD2         3.9125   -2.1352   -4.0118 H       1  PHE1        0.0620
     62 H           8.5686   -2.4476   -2.4476 H       1  PHE1        0.1528
     63 H           8.4014   -2.9606    2.0019 H       0  UNK0        0.0749
     64 H           6.8526   -3.7545    2.2192 H       0  UNK0        0.0749
     65 H           4.7034   -2.5296    2.0050 H       0  UNK0        0.0621
     66 H           3.5633   -0.3391    2.0337 H       0  UNK0        0.0618
     67 H           4.8488    1.7474    1.6552 H       0  UNK0        0.0618
     68 H           7.2906    1.6368    1.2290 H       0  UNK0        0.0618
     69 H           8.4510   -0.5339    1.2186 H       0  UNK0        0.0621
     70 H           5.9211   -5.1499   -5.4955 H       2  UNK2        0.1494
     71 H           5.7783   -6.1016   -8.7169 H       2  UNK2        0.1046
     72 H           3.7139   -6.3047   -6.6740 H       2  UNK2        0.0294
     73 H           4.2615   -6.9204   -5.1374 H       2  UNK2        0.0294
     74 H           4.2619   -9.5616   -8.2534 H       2  UNK2        0.0288
     75 H           3.3763   -8.0489   -8.5980 H       2  UNK2        0.0288
     76 H           2.2575  -10.7292   -7.6940 H       2  UNK2        0.0462
     77 H           1.6541   -9.6311   -8.9688 H       2  UNK2        0.0462
     78 H           0.3510   -9.1727   -6.8598 H       2  UNK2        0.1487
@<TRIPOS>BOND
     1     1     2    1
     2     2     3    1
     3     2     4    1
     4     5     7    1
     5     7     8   am
     6     8     9    2
     7    10    12    1
     8    12    13    1
     9    13    14   ar
    10    14    15   ar
    11    15    16   ar
    12    16    17   ar
    13    17    18   ar
    14    13    18   ar
    15    10    19    1
    16    19    20   am
    17    20    21    2
    18    20    22    1
    19    22    23    1
    20    23    24    1
    21    24    25   ar
    22    25    26   ar
    23    26    27   ar
    24    27    28   ar
    25    28    29   ar
    26    24    29   ar
    27     5    30    1
    28    30    31    2
    29    30    32   am
    30    33    35    1
    31    35    36    2
    32    33    37    1
    33    38    40    1
    34    40    41    1
    35    41    42    1
    36    42    43   am
    37    38    43    1
    38    43    44    2
    39    33    34    1
    40    33    32    1
    41    10    11    1
    42    10     8    1
    43    38    39    1
    44    38    37    1
    45     5     6    1
    46     5     4    1
    47     1    45    1
    48     1    46    1
    49     1    47    1
    50     2    48    1
    51     3    49    1
    52     3    50    1
    53     3    51    1
    54     4    52    1
    55     4    53    1
    56     7    54    1
    57    12    55    1
    58    12    56    1
    59    14    57    1
    60    15    58    1
    61    16    59    1
    62    17    60    1
    63    18    61    1
    64    19    62    1
    65    23    63    1
    66    23    64    1
    67    25    65    1
    68    26    66    1
    69    27    67    1
    70    28    68    1
    71    29    69    1
    72    32    70    1
    73    35    71    1
    74    37    72    1
    75    37    73    1
    76    40    74    1
    77    40    75    1
    78    41    76    1
    79    41    77    1
    80    42    78    1
@<TRIPOS>MOLECULE
*****
 84 87 0 0 0
SMALL
GASTEIGER

@<TRIPOS>ATOM
      1 CD1         3.7402   -6.1255    7.1246 C.3     1  LIG1       -0.0626
      2 CG          4.4622   -6.5631    5.8499 C.3     1  LIG1       -0.0446
      3 CD2         3.4556   -7.3845    5.0233 C.3     1  LIG1       -0.0626
      4 CB          5.0650   -5.3831    5.0275 C.3     1  LIG1       -0.0236
      5 CA          6.1477   -4.5044    5.7222 C.3     1  LIG1        0.0996
      6 HA          5.6808   -4.0015    6.5753 H       1  LIG1        0.0594
      7 N           6.6896   -3.4529    4.8084 N.am    1  LIG1       -0.3025
      8 C           6.3519   -2.1136    4.9570 C.2     1  LIG1        0.2344
      9 O           5.5173   -1.8113    5.8112 O.2     1  LIG1       -0.2737
     10 CA          7.1270   -1.0416    4.1076 C.3     1  LIG1        0.1064
     11 HA          8.1941   -1.1545    4.3488 H       1  LIG1        0.0599
     12 C           6.7308    0.4556    4.3183 C.3     1  LIG1        0.0000
     13 C           6.8553    1.0989    5.7032 C.ar    1  LIG1       -0.0374
     14 C           5.7794    0.8925    6.5891 C.ar    1  LIG1       -0.0579
     15 C           5.7482    1.4390    7.8668 C.ar    1  LIG1       -0.0609
     16 C           6.8021    2.2232    8.3024 C.ar    1  LIG1       -0.0540
     17 C           7.8595    2.5249    7.4406 C.ar    1  LIG1       -0.0176
     18 C           8.8517    3.4071    7.8941 C.ar    1  LIG1       -0.0540
     19 C           9.8431    3.8631    7.0347 C.ar    1  LIG1       -0.0612
     20 C           9.8643    3.4158    5.7204 C.ar    1  LIG1       -0.0612
     21 C           8.9245    2.4746    5.2745 C.ar    1  LIG1       -0.0538
     22 C           7.8906    1.9964    6.1126 C.ar    1  LIG1       -0.0146
     23 N           7.0447   -1.4191    2.6616 N.am    1  LIG1       -0.2695
     24 C           5.9464   -1.5606    1.9286 C.2     1  LIG1        0.4012
     25 O           6.0280   -1.9937    0.7678 O.2     1  LIG1       -0.2265
     26 O           4.8036   -1.2267    2.5761 O.3     1  LIG1       -0.4456
     27 C           3.6054   -1.8589    2.0993 C.3     1  LIG1        0.1191
     28 C           2.9040   -1.2211    0.9166 C.ar    1  LIG1       -0.0103
     29 C           1.5309   -1.4402    0.7215 C.ar    1  LIG1       -0.0554
     30 C           0.8909   -0.9640   -0.4284 C.ar    1  LIG1       -0.0614
     31 C           1.6108   -0.2695   -1.3991 C.ar    1  LIG1       -0.0617
     32 C           2.9665   -0.0404   -1.2173 C.ar    1  LIG1       -0.0614
     33 C           3.5978   -0.5034   -0.0668 C.ar    1  LIG1       -0.0554
     34 C           7.3319   -5.3545    6.2556 C.2     1  LIG1        0.2339
     35 O           8.1227   -5.9272    5.5065 O.2     1  LIG1       -0.2738
     36 N           7.4443   -5.4251    7.6392 N.am    1  LIG1       -0.3044
     37 CA          8.5090   -6.2220    8.2529 C.3     1  LIG1        0.0791
     38 HA          9.4589   -5.8636    7.8352 H       1  LIG1        0.0574
     39 C           8.3661   -7.6884    7.8451 C.2     1  LIG1        0.1404
     40 O           7.2924   -8.2815    7.7668 O.2     1  LIG1       -0.2991
     41 C           8.5892   -6.1152    9.7875 C.3     1  LIG1       -0.0167
     42 C           7.3868   -6.5913   10.6241 C.3     1  LIG1        0.0390
     43 H           7.2671   -7.6801   10.5645 H       1  LIG1        0.0395
     44 C           6.0463   -5.8995   10.3436 C.3     1  LIG1       -0.0262
     45 C           5.4123   -5.7021   11.7050 C.3     1  LIG1        0.0123
     46 N           6.5386   -5.5610   12.5684 N.am    1  LIG1       -0.3151
     47 C           7.6379   -6.2323   12.0811 C.2     1  LIG1        0.2162
     48 O           8.6395   -6.4879   12.7269 O.2     1  LIG1       -0.2755
     49 HD11        3.3337   -7.0003    7.6500 H       1  LIG1        0.0232
     50 HD12        2.8985   -5.4627    6.8989 H       1  LIG1        0.0232
     51 HD13        4.4111   -5.6138    7.8144 H       1  LIG1        0.0232
     52 HG          5.2739   -7.2435    6.1322 H       1  LIG1        0.0296
     53 HD21        2.6358   -6.7597    4.6516 H       1  LIG1        0.0232
     54 HD22        3.0052   -8.1759    5.6382 H       1  LIG1        0.0232
     55 HD23        3.9350   -7.8733    4.1705 H       1  LIG1        0.0232
     56 HB1         4.2445   -4.7249    4.7107 H       1  LIG1        0.0290
     57 HB2         5.4887   -5.7985    4.1034 H       1  LIG1        0.0290
     58 H           7.3455   -3.7336    4.0857 H       1  LIG1        0.1495
     59 H           5.6871    0.5936    4.0123 H       1  LIG1        0.0336
     60 H           7.2867    1.0645    3.5938 H       1  LIG1        0.0336
     61 H           4.9127    0.3163    6.2721 H       1  LIG1        0.0620
     62 H           4.8873    1.2692    8.5070 H       1  LIG1        0.0618
     63 H           6.7551    2.6512    9.3016 H       1  LIG1        0.0624
     64 H           8.8343    3.7814    8.9166 H       1  LIG1        0.0624
     65 H          10.5761    4.5847    7.3860 H       1  LIG1        0.0618
     66 H          10.6059    3.8119    5.0313 H       1  LIG1        0.0618
     67 H           8.9859    2.1680    4.2351 H       1  LIG1        0.0624
     68 H           7.8954   -1.6252    2.1572 H       1  LIG1        0.1528
     69 H           2.9210   -1.8780    2.9526 H       1  LIG1        0.0749
     70 H           3.8440   -2.9080    1.8710 H       1  LIG1        0.0749
     71 H           0.9465   -1.9893    1.4581 H       1  LIG1        0.0621
     72 H          -0.1708   -1.1428   -0.5743 H       1  LIG1        0.0618
     73 H           1.1210    0.0958   -2.2964 H       1  LIG1        0.0618
     74 H           3.5508    0.4886   -1.9650 H       1  LIG1        0.0618
     75 H           4.6579   -0.2991    0.0199 H       1  LIG1        0.0621
     76 H           7.1033   -4.6183    8.1468 H       1  LIG1        0.1494
     77 H           9.3185   -8.2155    7.6580 H       1  LIG1        0.1046
     78 H           8.8194   -5.0757   10.0583 H       1  LIG1        0.0294
     79 H           9.4622   -6.6972   10.1237 H       1  LIG1        0.0294
     80 H           5.4087   -6.4938    9.6836 H       1  LIG1        0.0288
     81 H           6.1897   -4.9138    9.8939 H       1  LIG1        0.0288
     82 H           4.8437   -6.5796   12.0261 H       1  LIG1        0.0462
     83 H           4.7806   -4.8112   11.7539 H       1  LIG1        0.0462
     84 H           6.4954   -5.3128   13.5494 H       1  LIG1        0.1487
@<TRIPOS>BOND
     1     1     2    1
     2     2     3    1
     3     2     4    1
     4     5     7    1
     5     7     8   am
     6     8     9    2
     7    10    12    1
     8    12    13    1
     9    13    14   ar
    10    14    15   ar
    11    15    16   ar
    12    16    17   ar
    13    17    18   ar
    14    18    19   ar
    15    19    20   ar
    16    20    21   ar
    17    21    22   ar
    18    13    22   ar
    19    17    22   ar
    20    10    23    1
    21    23    24   am
    22    24    25    2
    23    24    26    1
    24    26    27    1
    25    27    28    1
    26    28    29   ar
    27    29    30   ar
    28    30    31   ar
    29    31    32   ar
    30    32    33   ar
    31    28    33   ar
    32     5    34    1
    33    34    35    2
    34    34    36   am
    35    37    39    1
    36    39    40    2
    37    37    41    1
    38    42    44    1
    39    44    45    1
    40    45    46    1
    41    46    47   am
    42    42    47    1
    43    47    48    2
    44    42    43    1
    45    42    41    1
    46     5     6    1
    47     5     4    1
    48    10    11    1
    49    10     8    1
    50    37    38    1
    51    37    36    1
    52     1    49    1
    53     1    50    1
    54     1    51    1
    55     2    52    1
    56     3    53    1
    57     3    54    1
    58     3    55    1
    59     4    56    1
    60     4    57    1
    61     7    58    1
    62    12    59    1
    63    12    60    1
    64    14    61    1
    65    15    62    1
    66    16    63    1
    67    18    64    1
    68    19    65    1
    69    20    66    1
    70    21    67    1
    71    23    68    1
    72    27    69    1
    73    27    70    1
    74    29    71    1
    75    30    72    1
    76    31    73    1
    77    32    74    1
    78    33    75    1
    79    36    76    1
    80    39    77    1
    81    41    78    1
    82    41    79    1
    83    44    80    1
    84    44    81    1
    85    45    82    1
    86    45    83    1
    87    46    84    1
@<TRIPOS>MOLECULE
*****
 84 87 0 0 0
SMALL
GASTEIGER

@<TRIPOS>ATOM
      1 CD1         6.4318    4.5826    6.5194 C.3     1  LIG1       -0.0626
      2 CG          5.3729    5.0187    5.5041 C.3     1  LIG1       -0.0446
      3 CD2         5.0012    6.4828    5.7694 C.3     1  LIG1       -0.0626
      4 CB          5.7903    4.8112    4.0150 C.3     1  LIG1       -0.0236
      5 CA          5.9966    3.3285    3.6004 C.3     1  LIG1        0.0996
      6 HA          6.7902    2.8747    4.2026 H       1  LIG1        0.0594
      7 N           6.3525    3.1737    2.1682 N.am    1  LIG1       -0.3025
      8 C           7.1186    2.1039    1.7039 C.2     1  LIG1        0.2344
      9 O           7.6379    1.3059    2.4814 O.2     1  LIG1       -0.2737
     10 CA          7.3149    2.0656    0.1496 C.3     1  LIG1        0.1064
     11 HA          7.7052    3.0399   -0.1568 H       1  LIG1        0.0599
     12 C           8.2786    0.9500   -0.3406 C.3     1  LIG1        0.0000
     13 C           9.7213    1.0111    0.1032 C.ar    1  LIG1       -0.0374
     14 C          10.3204    2.2605    0.3090 C.ar    1  LIG1       -0.0579
     15 C          11.6132    2.3525    0.7962 C.ar    1  LIG1       -0.0609
     16 C          12.3349    1.1956    1.0665 C.ar    1  LIG1       -0.0540
     17 C          11.7844   -0.0728    0.8323 C.ar    1  LIG1       -0.0176
     18 C          12.5365   -1.2269    1.1077 C.ar    1  LIG1       -0.0540
     19 C          12.0238   -2.4993    0.8604 C.ar    1  LIG1       -0.0612
     20 C          10.7531   -2.6358    0.3230 C.ar    1  LIG1       -0.0612
     21 C           9.9901   -1.4979    0.0541 C.ar    1  LIG1       -0.0538
     22 C          10.4717   -0.1876    0.3175 C.ar    1  LIG1       -0.0146
     23 N           5.9745    1.9998   -0.4727 N.am    1  LIG1       -0.2695
     24 C           5.3456    0.7631   -0.6275 C.2     1  LIG1        0.4012
     25 O           5.8812   -0.3402   -0.5638 O.2     1  LIG1       -0.2265
     26 O           4.0605    0.9902   -0.9385 O.3     1  LIG1       -0.4456
     27 C           3.3429   -0.2177   -1.2393 C.3     1  LIG1        0.1191
     28 C           3.3440   -0.4182   -2.7314 C.ar    1  LIG1       -0.0103
     29 C           2.1452   -0.4497   -3.4485 C.ar    1  LIG1       -0.0554
     30 C           2.1637   -0.6143   -4.8355 C.ar    1  LIG1       -0.0614
     31 C           3.3750   -0.7301   -5.5188 C.ar    1  LIG1       -0.0617
     32 C           4.5725   -0.7009   -4.8174 C.ar    1  LIG1       -0.0614
     33 C           4.5530   -0.5646   -3.4345 C.ar    1  LIG1       -0.0554
     34 C           4.6548    2.6053    3.8353 C.2     1  LIG1        0.2339
     35 O           3.5704    3.1396    3.6075 O.2     1  LIG1       -0.2738
     36 N           4.7522    1.3009    4.2398 N.am    1  LIG1       -0.3044
     37 CA          3.5702    0.4889    4.4956 C.3     1  LIG1        0.0791
     38 HA          2.6936    1.1424    4.4043 H       1  LIG1        0.0574
     39 C           3.4942   -0.0182    5.9317 C.2     1  LIG1        0.1404
     40 O           4.4566   -0.4146    6.5832 O.2     1  LIG1       -0.2991
     41 C           3.4120   -0.6322    3.4689 C.3     1  LIG1       -0.0167
     42 C           4.4628   -1.7505    3.5158 C.3     1  LIG1        0.0390
     43 H           4.3793   -2.3165    4.4511 H       1  LIG1        0.0395
     44 C           5.9142   -1.3181    3.2908 C.3     1  LIG1       -0.0262
     45 C           6.5789   -2.5090    2.6408 C.3     1  LIG1        0.0123
     46 N           5.5065   -3.1199    1.9201 N.am    1  LIG1       -0.3151
     47 C           4.2644   -2.7304    2.3733 C.2     1  LIG1        0.2162
     48 O           3.1998   -3.1381    1.9460 O.2     1  LIG1       -0.2755
     49 HD11        5.9828    4.5126    7.5184 H       1  LIG1        0.0232
     50 HD12        7.2520    5.3054    6.5815 H       1  LIG1        0.0232
     51 HD13        6.8534    3.6018    6.2895 H       1  LIG1        0.0232
     52 HG          4.4702    4.4288    5.7048 H       1  LIG1        0.0296
     53 HD21        5.8754    7.1377    5.6919 H       1  LIG1        0.0232
     54 HD22        4.5853    6.5983    6.7776 H       1  LIG1        0.0232
     55 HD23        4.2456    6.8342    5.0596 H       1  LIG1        0.0232
     56 HB1         6.6903    5.3961    3.7939 H       1  LIG1        0.0290
     57 HB2         4.9949    5.2368    3.3856 H       1  LIG1        0.0290
     58 H           5.7183    3.5907    1.4983 H       1  LIG1        0.1495
     59 H           8.2664    0.9034   -1.4397 H       1  LIG1        0.0336
     60 H           7.8931    0.0045    0.0388 H       1  LIG1        0.0336
     61 H           9.7876    3.1835    0.1090 H       1  LIG1        0.0620
     62 H          12.0508    3.3298    0.9734 H       1  LIG1        0.0618
     63 H          13.3456    1.2947    1.4530 H       1  LIG1        0.0624
     64 H          13.5389   -1.1394    1.5204 H       1  LIG1        0.0624
     65 H          12.6217   -3.3795    1.0781 H       1  LIG1        0.0618
     66 H          10.3498   -3.6220    0.1084 H       1  LIG1        0.0618
     67 H           9.0054   -1.6596   -0.3791 H       1  LIG1        0.0624
     68 H           5.4915    2.8167   -0.7532 H       1  LIG1        0.1528
     69 H           2.3308   -0.1066   -0.8415 H       1  LIG1        0.0749
     70 H           3.7640   -1.1024   -0.7289 H       1  LIG1        0.0749
     71 H           1.1916   -0.3461   -2.9358 H       1  LIG1        0.0621
     72 H           1.2292   -0.6506   -5.3873 H       1  LIG1        0.0618
     73 H           3.3880   -0.8490   -6.5977 H       1  LIG1        0.0618
     74 H           5.5247   -0.7882   -5.3329 H       1  LIG1        0.0618
     75 H           5.5084   -0.5716   -2.9186 H       1  LIG1        0.0621
     76 H           5.6753    0.8783    4.2430 H       1  LIG1        0.1494
     77 H           2.4733   -0.0531    6.3568 H       1  LIG1        0.1046
     78 H           3.4009   -0.1841    2.4655 H       1  LIG1        0.0294
     79 H           2.4203   -1.0854    3.6031 H       1  LIG1        0.0294
     80 H           6.4249   -1.0339    4.2158 H       1  LIG1        0.0288
     81 H           5.9430   -0.4807    2.5873 H       1  LIG1        0.0288
     82 H           6.9557   -3.2226    3.3786 H       1  LIG1        0.0462
     83 H           7.3828   -2.2168    1.9600 H       1  LIG1        0.0462
     84 H           5.6100   -3.7936    1.1730 H       1  LIG1        0.1487
@<TRIPOS>BOND
     1     1     2    1
     2     2     3    1
     3     2     4    1
     4     5     7    1
     5     7     8   am
     6     8     9    2
     7     8    10    1
     8    10    11    1
     9    10    12    1
    10    12    13    1
    11    13    14   ar
    12    14    15   ar
    13    15    16   ar
    14    16    17   ar
    15    17    18   ar
    16    18    19   ar
    17    19    20   ar
    18    20    21   ar
    19    21    22   ar
    20    13    22   ar
    21    17    22   ar
    22    10    23    1
    23    23    24   am
    24    24    25    2
    25    24    26    1
    26    26    27    1
    27    27    28    1
    28    28    29   ar
    29    29    30   ar
    30    30    31   ar
    31    31    32   ar
    32    32    33   ar
    33    28    33   ar
    34     5    34    1
    35    34    35    2
    36    34    36   am
    37    37    39    1
    38    39    40    2
    39    37    41    1
    40    42    44    1
    41    44    45    1
    42    45    46    1
    43    46    47   am
    44    42    47    1
    45    47    48    2
    46    42    43    1
    47    42    41    1
    48     5     6    1
    49     5     4    1
    50    37    38    1
    51    37    36    1
    52     1    49    1
    53     1    50    1
    54     1    51    1
    55     2    52    1
    56     3    53    1
    57     3    54    1
    58     3    55    1
    59     4    56    1
    60     4    57    1
    61     7    58    1
    62    12    59    1
    63    12    60    1
    64    14    61    1
    65    15    62    1
    66    16    63    1
    67    18    64    1
    68    19    65    1
    69    20    66    1
    70    21    67    1
    71    23    68    1
    72    27    69    1
    73    27    70    1
    74    29    71    1
    75    30    72    1
    76    31    73    1
    77    32    74    1
    78    33    75    1
    79    36    76    1
    80    39    77    1
    81    41    78    1
    82    41    79    1
    83    44    80    1
    84    44    81    1
    85    45    82    1
    86    45    83    1
    87    46    84    1
@<TRIPOS>MOLECULE
*****
 84 87 0 0 0
SMALL
GASTEIGER

@<TRIPOS>ATOM
      1 CD1         4.0051    7.8179   -2.7489 C.3     1  LIG1       -0.0626
      2 CG          4.9083    8.3420   -1.6340 C.3     1  LIG1       -0.0446
      3 CD2         4.0323    8.7242   -0.4270 C.3     1  LIG1       -0.0626
      4 CB          6.0170    7.3456   -1.1917 C.3     1  LIG1       -0.0236
      5 CA          7.0410    6.8462   -2.2558 C.3     1  LIG1        0.0996
      6 HA          6.5140    6.2378   -2.9984 H       1  LIG1        0.0594
      7 N           8.0518    5.9803   -1.5753 N.am    1  LIG1       -0.3025
      8 C           8.5293    4.7964   -2.0996 C.2     1  LIG1        0.2344
      9 O           8.1638    4.3960   -3.2051 O.2     1  LIG1       -0.2737
     10 CA          9.5685    3.9926   -1.2485 C.3     1  LIG1        0.1064
     11 HA          9.9124    3.1712   -1.8856 H       1  LIG1        0.0599
     12 C           9.0465    3.3899    0.0765 C.3     1  LIG1       -0.0005
     13 C           7.8790    2.4514   -0.0030 C.ar    1  LIG1       -0.0445
     14 C           6.5825    2.9722    0.0499 C.ar    1  LIG1       -0.0579
     15 C           5.4794    2.1254   -0.0042 C.ar    1  LIG1       -0.0538
     16 C           5.6516    0.7381   -0.0969 C.ar    1  LIG1       -0.0179
     17 C           4.5510   -0.1251   -0.1998 C.ar    1  LIG1       -0.0540
     18 C           4.7351   -1.5058   -0.2777 C.ar    1  LIG1       -0.0612
     19 C           6.0188   -2.0410   -0.2249 C.ar    1  LIG1       -0.0612
     20 C           7.1244   -1.1951   -0.1270 C.ar    1  LIG1       -0.0540
     21 C           6.9585    0.1979   -0.0889 C.ar    1  LIG1       -0.0176
     22 C           8.0621    1.0648   -0.0496 C.ar    1  LIG1       -0.0508
     23 N          10.7818    4.7855   -1.0066 N.am    1  LIG1       -0.2695
     24 C          10.9213    5.6682    0.0248 C.2     1  LIG1        0.4012
     25 O           9.9806    6.0144    0.7827 O.2     1  LIG1       -0.2265
     26 O          12.1492    6.1651    0.0691 O.3     1  LIG1       -0.4456
     27 C          12.2570    7.4311    0.7304 C.3     1  LIG1        0.1191
     28 C          13.0573    7.4527    2.0106 C.ar    1  LIG1       -0.0103
     29 C          12.7466    8.4171    2.9868 C.ar    1  LIG1       -0.0554
     30 C          13.5662    8.6006    4.1015 C.ar    1  LIG1       -0.0614
     31 C          14.7105    7.8238    4.2543 C.ar    1  LIG1       -0.0617
     32 C          15.0167    6.8454    3.3086 C.ar    1  LIG1       -0.0614
     33 C          14.1933    6.6565    2.1936 C.ar    1  LIG1       -0.0554
     34 C           7.7246    8.0425   -3.0066 C.2     1  LIG1        0.2339
     35 O           7.8225    9.1540   -2.4872 O.2     1  LIG1       -0.2738
     36 N           8.3151    7.7640   -4.2330 N.am    1  LIG1       -0.3044
     37 CA          9.0372    8.7450   -5.1172 C.3     1  LIG1        0.0791
     38 HA          9.6359    8.1053   -5.7783 H       1  LIG1        0.0574
     39 C          10.0510    9.5142   -4.2622 C.2     1  LIG1        0.1404
     40 O          11.0438   10.0916   -4.6974 O.2     1  LIG1       -0.2991
     41 C           8.1247    9.6230   -6.0330 C.3     1  LIG1       -0.0167
     42 C           8.7832   10.4013   -7.2268 C.3     1  LIG1        0.0390
     43 H           9.2148    9.6914   -7.9437 H       1  LIG1        0.0395
     44 C           9.7994   11.5273   -6.9643 C.3     1  LIG1       -0.0262
     45 C           8.9693   12.7534   -6.6709 C.3     1  LIG1        0.0123
     46 N           7.8428   12.5606   -7.5243 N.am    1  LIG1       -0.3151
     47 C           7.7332   11.2489   -7.9576 C.2     1  LIG1        0.2162
     48 O           6.9296   10.8597   -8.7865 O.2     1  LIG1       -0.2755
     49 HD11        3.2480    8.5706   -3.0066 H       1  LIG1        0.0232
     50 HD12        3.4738    6.9117   -2.4419 H       1  LIG1        0.0232
     51 HD13        4.5700    7.6073   -3.6604 H       1  LIG1        0.0232
     52 HG          5.3710    9.2676   -1.9950 H       1  LIG1        0.0296
     53 HD21        3.7338    7.8407    0.1477 H       1  LIG1        0.0232
     54 HD22        3.1158    9.2394   -0.7394 H       1  LIG1        0.0232
     55 HD23        4.5718    9.3995    0.2455 H       1  LIG1        0.0232
     56 HB1         5.5297    6.4629   -0.7538 H       1  LIG1        0.0290
     57 HB2         6.5701    7.8130   -0.3643 H       1  LIG1        0.0290
     58 H           8.4735    6.3066   -0.7072 H       1  LIG1        0.1495
     59 H           8.7410    4.1724    0.7745 H       1  LIG1        0.0336
     60 H           9.8800    2.8755    0.5787 H       1  LIG1        0.0336
     61 H           6.4238    4.0439    0.1501 H       1  LIG1        0.0620
     62 H           4.4841    2.5609    0.0315 H       1  LIG1        0.0624
     63 H           3.5405    0.2753   -0.2332 H       1  LIG1        0.0624
     64 H           3.8750   -2.1623   -0.3769 H       1  LIG1        0.0618
     65 H           6.1618   -3.1173   -0.2681 H       1  LIG1        0.0618
     66 H           8.1194   -1.6318   -0.0864 H       1  LIG1        0.0624
     67 H           9.0700    0.6538   -0.0443 H       1  LIG1        0.0626
     68 H          11.4540    4.9153   -1.7500 H       1  LIG1        0.1528
     69 H          11.2654    7.8717    0.9015 H       1  LIG1        0.0749
     70 H          12.7621    8.0861    0.0179 H       1  LIG1        0.0749
     71 H          11.8705    9.0533    2.8722 H       1  LIG1        0.0621
     72 H          13.3209    9.3615    4.8385 H       1  LIG1        0.0618
     73 H          15.3656    7.9841    5.1069 H       1  LIG1        0.0618
     74 H          15.9112    6.2400    3.4310 H       1  LIG1        0.0618
     75 H          14.4614    5.9031    1.4573 H       1  LIG1        0.0621
     76 H           8.2666    6.7981   -4.5509 H       1  LIG1        0.1494
     77 H           9.8577    9.5812   -3.1857 H       1  LIG1        0.1046
     78 H           7.5054   10.2996   -5.4345 H       1  LIG1        0.0294
     79 H           7.4038    8.9340   -6.5074 H       1  LIG1        0.0294
     80 H          10.3685   11.6990   -7.8914 H       1  LIG1        0.0288
     81 H          10.5458   11.3819   -6.2043 H       1  LIG1        0.0288
     82 H           9.4936   13.6791   -6.9241 H       1  LIG1        0.0462
     83 H           8.6278   12.7924   -5.6322 H       1  LIG1        0.0462
     84 H           7.2856   13.3032   -7.9296 H       1  LIG1        0.1487
@<TRIPOS>BOND
     1     1     2    1
     2     2     3    1
     3     2     4    1
     4     5     7    1
     5     7     8   am
     6     8     9    2
     7    10    12    1
     8    12    13    1
     9    13    14   ar
    10    14    15   ar
    11    15    16   ar
    12    16    17   ar
    13    17    18   ar
    14    18    19   ar
    15    19    20   ar
    16    20    21   ar
    17    16    21   ar
    18    21    22   ar
    19    13    22   ar
    20    10    23    1
    21    23    24   am
    22    24    25    2
    23    24    26    1
    24    26    27    1
    25    27    28    1
    26    28    29   ar
    27    29    30   ar
    28    30    31   ar
    29    31    32   ar
    30    32    33   ar
    31    28    33   ar
    32     5    34    1
    33    34    35    2
    34    34    36   am
    35    37    39    1
    36    39    40    2
    37    37    41    1
    38    42    44    1
    39    44    45    1
    40    45    46    1
    41    46    47   am
    42    42    47    1
    43    47    48    2
    44    42    43    1
    45    42    41    1
    46    37    38    1
    47    37    36    1
    48    10    11    1
    49    10     8    1
    50     5     6    1
    51     5     4    1
    52     1    49    1
    53     1    50    1
    54     1    51    1
    55     2    52    1
    56     3    53    1
    57     3    54    1
    58     3    55    1
    59     4    56    1
    60     4    57    1
    61     7    58    1
    62    12    59    1
    63    12    60    1
    64    14    61    1
    65    15    62    1
    66    17    63    1
    67    18    64    1
    68    19    65    1
    69    20    66    1
    70    22    67    1
    71    23    68    1
    72    27    69    1
    73    27    70    1
    74    29    71    1
    75    30    72    1
    76    31    73    1
    77    32    74    1
    78    33    75    1
    79    36    76    1
    80    39    77    1
    81    41    78    1
    82    41    79    1
    83    44    80    1
    84    44    81    1
    85    45    82    1
    86    45    83    1
    87    46    84    1
@<TRIPOS>MOLECULE
*****
 88 91 0 0 0
SMALL
GASTEIGER

@<TRIPOS>ATOM
      1 CD1         9.5116   -4.1493    4.6431 C.3     1  LIG1       -0.0626
      2 CG          8.6806   -4.3570    3.3667 C.3     1  LIG1       -0.0446
      3 CD2         8.5360   -5.8576    3.1197 C.3     1  LIG1       -0.0626
      4 CB          7.3399   -3.6120    3.5156 C.3     1  LIG1       -0.0236
      5 CA          6.3276   -3.6326    2.3513 C.3     1  LIG1        0.0996
      6 HA          6.7548   -3.1490    1.4670 H       1  LIG1        0.0594
      7 N           5.1721   -2.8396    2.8037 N.am    1  LIG1       -0.3025
      8 C           4.3642   -2.1078    1.9669 C.2     1  LIG1        0.2344
      9 O           4.5715   -2.0098    0.7585 O.2     1  LIG1       -0.2737
     10 CA          3.1792   -1.4126    2.6747 C.3     1  LIG1        0.1064
     11 HA          3.4722   -1.1612    3.7025 H       1  LIG1        0.0599
     12 C           1.9112   -2.2837    2.6744 C.3     1  LIG1       -0.0005
     13 C           2.0780   -3.5924    3.3979 C.ar    1  LIG1       -0.0451
     14 C           2.4746   -4.7306    2.6998 C.ar    1  LIG1       -0.0579
     15 C           2.6852   -5.9396    3.3725 C.ar    1  LIG1       -0.0538
     16 C           2.5436   -6.0529    4.7630 C.ar    1  LIG1       -0.0179
     17 C           2.8248   -7.3274    5.4741 C.ar    1  LIG1       -0.0179
     18 C           2.1177   -7.6826    6.6374 C.ar    1  LIG1       -0.0540
     19 C           2.3630   -8.8832    7.3120 C.ar    1  LIG1       -0.0612
     20 C           3.3242   -9.7673    6.8362 C.ar    1  LIG1       -0.0617
     21 C           4.0437   -9.4467    5.6902 C.ar    1  LIG1       -0.0612
     22 C           3.7994   -8.2399    5.0217 C.ar    1  LIG1       -0.0540
     23 C           2.1232   -4.8966    5.4439 C.ar    1  LIG1       -0.0538
     24 C           1.8860   -3.6876    4.7759 C.ar    1  LIG1       -0.0579
     25 N           2.9371   -0.1537    1.9740 N.am    1  LIG1       -0.2695
     26 C           2.1389    0.8319    2.4002 C.2     1  LIG1        0.4012
     27 O           1.8696    1.7900    1.6540 O.2     1  LIG1       -0.2265
     28 O           1.7567    0.6896    3.6889 O.3     1  LIG1       -0.4456
     29 C           1.4048    1.9049    4.3638 C.3     1  LIG1        0.1191
     30 C          -0.0282    2.3422    4.1797 C.ar    1  LIG1       -0.0103
     31 C          -0.6552    3.1182    5.1635 C.ar    1  LIG1       -0.0554
     32 C          -1.9601    3.5802    4.9689 C.ar    1  LIG1       -0.0614
     33 C          -2.6428    3.2945    3.7865 C.ar    1  LIG1       -0.0617
     34 C          -2.0276    2.5424    2.7990 C.ar    1  LIG1       -0.0614
     35 C          -0.7415    2.0633    3.0055 C.ar    1  LIG1       -0.0554
     36 C           5.8650   -5.0682    1.9802 C.2     1  LIG1        0.2339
     37 O           5.3851   -5.8439    2.8012 O.2     1  LIG1       -0.2738
     38 N           6.0435   -5.4375    0.6675 N.am    1  LIG1       -0.3044
     39 CA          5.6654   -6.7510    0.1078 C.3     1  LIG1        0.0791
     40 HA          5.6748   -7.5037    0.9046 H       1  LIG1        0.0574
     41 C           6.7816   -7.0870   -0.8687 C.2     1  LIG1        0.1404
     42 O           7.3683   -6.2517   -1.5546 O.2     1  LIG1       -0.2991
     43 C           4.2808   -6.6502   -0.5480 C.3     1  LIG1       -0.0167
     44 C           3.6552   -7.8607   -1.2741 C.3     1  LIG1        0.0390
     45 H           3.4038   -8.6590   -0.5676 H       1  LIG1        0.0395
     46 C           4.3775   -8.4485   -2.4969 C.3     1  LIG1       -0.0262
     47 C           3.9879   -7.5370   -3.6438 C.3     1  LIG1        0.0123
     48 N           2.6540   -7.1634   -3.2947 N.am    1  LIG1       -0.3151
     49 C           2.3811   -7.3612   -1.9546 C.2     1  LIG1        0.2162
     50 O           1.3197   -7.1085   -1.4135 O.2     1  LIG1       -0.2755
     51 HD11       10.5007   -4.6094    4.5414 H       1  LIG1        0.0232
     52 HD12        9.0210   -4.6003    5.5136 H       1  LIG1        0.0232
     53 HD13        9.6620   -3.0851    4.8517 H       1  LIG1        0.0232
     54 HG          9.2388   -3.9171    2.5316 H       1  LIG1        0.0296
     55 HD21        7.6713   -6.2725    3.6453 H       1  LIG1        0.0232
     56 HD22        9.4128   -6.4142    3.4653 H       1  LIG1        0.0232
     57 HD23        8.4334   -6.0595    2.0495 H       1  LIG1        0.0232
     58 HB1         7.5772   -2.5537    3.7040 H       1  LIG1        0.0290
     59 HB2         6.8431   -3.9626    4.4316 H       1  LIG1        0.0290
     60 H           4.8494   -3.0020    3.7525 H       1  LIG1        0.1495
     61 H           1.5792   -2.4700    1.6441 H       1  LIG1        0.0336
     62 H           1.0772   -1.7442    3.1429 H       1  LIG1        0.0336
     63 H           2.6689   -4.6827    1.6298 H       1  LIG1        0.0620
     64 H           3.0282   -6.7873    2.7834 H       1  LIG1        0.0624
     65 H           1.3440   -7.0287    7.0313 H       1  LIG1        0.0624
     66 H           1.7937   -9.1245    8.2054 H       1  LIG1        0.0618
     67 H           3.5108  -10.7021    7.3575 H       1  LIG1        0.0618
     68 H           4.7985  -10.1323    5.3139 H       1  LIG1        0.0618
     69 H           4.3979   -8.0173    4.1399 H       1  LIG1        0.0624
     70 H           1.9825   -4.9150    6.5215 H       1  LIG1        0.0624
     71 H           1.5504   -2.8253    5.3474 H       1  LIG1        0.0620
     72 H           3.3767   -0.0039    1.0710 H       1  LIG1        0.1528
     73 H           2.1013    2.7043    4.0781 H       1  LIG1        0.0749
     74 H           1.5841    1.7055    5.4274 H       1  LIG1        0.0749
     75 H          -0.1372    3.3679    6.0877 H       1  LIG1        0.0621
     76 H          -2.4472    4.1710    5.7388 H       1  LIG1        0.0618
     77 H          -3.6540    3.6541    3.6289 H       1  LIG1        0.0618
     78 H          -2.5279    2.3184    1.8614 H       1  LIG1        0.0618
     79 H          -0.3169    1.4719    2.2038 H       1  LIG1        0.0621
     80 H           6.4416   -4.7663    0.0158 H       1  LIG1        0.1494
     81 H           7.0267   -8.1592   -0.9614 H       1  LIG1        0.1046
     82 H           4.2671   -5.7766   -1.2125 H       1  LIG1        0.0294
     83 H           3.5784   -6.3923    0.2574 H       1  LIG1        0.0294
     84 H           3.9596   -9.4475   -2.6938 H       1  LIG1        0.0288
     85 H           5.4521   -8.5803   -2.4054 H       1  LIG1        0.0288
     86 H           3.9938   -8.0439   -4.6123 H       1  LIG1        0.0462
     87 H           4.6098   -6.6381   -3.6886 H       1  LIG1        0.0462
     88 H           1.9623   -6.7682   -3.9214 H       1  LIG1        0.1487
@<TRIPOS>BOND
     1     1     2    1
     2     2     3    1
     3     2     4    1
     4     5     7    1
     5     7     8   am
     6     8     9    2
     7    10    12    1
     8    12    13    1
     9    13    14   ar
    10    14    15   ar
    11    15    16   ar
    12    16    17    1
    13    17    18   ar
    14    18    19   ar
    15    19    20   ar
    16    20    21   ar
    17    21    22   ar
    18    17    22   ar
    19    16    23   ar
    20    23    24   ar
    21    13    24   ar
    22    10    25    1
    23    25    26   am
    24    26    27    2
    25    26    28    1
    26    28    29    1
    27    29    30    1
    28    30    31   ar
    29    31    32   ar
    30    32    33   ar
    31    33    34   ar
    32    34    35   ar
    33    30    35   ar
    34     5    36    1
    35    36    37    2
    36    36    38   am
    37    39    41    1
    38    41    42    2
    39    39    43    1
    40    44    46    1
    41    46    47    1
    42    47    48    1
    43    48    49   am
    44    44    49    1
    45    49    50    2
    46     5     6    1
    47     5     4    1
    48    10    11    1
    49    10     8    1
    50    39    40    1
    51    39    38    1
    52    44    45    1
    53    44    43    1
    54     1    51    1
    55     1    52    1
    56     1    53    1
    57     2    54    1
    58     3    55    1
    59     3    56    1
    60     3    57    1
    61     4    58    1
    62     4    59    1
    63     7    60    1
    64    12    61    1
    65    12    62    1
    66    14    63    1
    67    15    64    1
    68    18    65    1
    69    19    66    1
    70    20    67    1
    71    21    68    1
    72    22    69    1
    73    23    70    1
    74    24    71    1
    75    25    72    1
    76    29    73    1
    77    29    74    1
    78    31    75    1
    79    32    76    1
    80    33    77    1
    81    34    78    1
    82    35    79    1
    83    38    80    1
    84    41    81    1
    85    43    82    1
    86    43    83    1
    87    46    84    1
    88    46    85    1
    89    47    86    1
    90    47    87    1
    91    48    88    1
@<TRIPOS>MOLECULE
*****
 82 84 0 0 0
SMALL
GASTEIGER

@<TRIPOS>ATOM
      1 C           6.0641    9.9963    1.9707 C.3     1  LIG1       -0.0306
      2 C           6.9544    8.9057    2.5336 C.3     1  LIG1        0.0900
      3 O           6.2778    7.6533    2.5966 O.3     1  LIG1       -0.4618
      4 C           6.2362    6.9631    1.4267 C.2     1  LIG1        0.3317
      5 O           6.5437    7.3834    0.3085 O.2     1  LIG1       -0.2456
      6 C           5.9066    5.5778    1.7395 C.2     1  LIG1        0.0203
      7 C           6.3216    4.6049    0.9007 C.2     1  LIG1       -0.0572
      8 C           6.1792    3.1396    1.1757 C.3     1  LIG1        0.0427
      9 H           5.6240    2.9729    2.1062 H       1  LIG1        0.0543
     10 C           7.5555    2.4454    1.2574 C.3     1  LIG1       -0.0197
     11 C           8.4624    2.9924    2.3752 C.3     1  LIG1        0.0389
     12 H           8.6153    4.0725    2.2899 H       1  LIG1        0.0395
     13 C           9.8317    2.2943    2.4329 C.3     1  LIG1       -0.0262
     14 C           9.6024    1.1010    3.3417 C.3     1  LIG1        0.0123
     15 N           8.5898    1.5678    4.2368 N.am    1  LIG1       -0.3151
     16 C           7.9026    2.6496    3.7392 C.2     1  LIG1        0.2162
     17 O           6.9720    3.2119    4.2919 O.2     1  LIG1       -0.2755
     18 N           5.3909    2.6125    0.0698 N.am    1  LIG1       -0.3088
     19 C           4.4483    1.6204    0.2429 C.2     1  LIG1        0.2173
     20 O           4.3050    1.0190    1.3003 O.2     1  LIG1       -0.2755
     21 C           3.6306    1.3136   -1.0162 C.3     1  LIG1        0.0462
     22 H           3.5360    2.2618   -1.5664 H       1  LIG1        0.0401
     23 C           4.4253    0.3468   -1.9098 C.3     1  LIG1        0.0191
     24 C           4.6378   -1.0593   -1.3725 C.2     1  LIG1        0.1544
     25 O           3.8499   -1.6082   -0.6036 O.2     1  LIG1       -0.2954
     26 C           5.8289   -1.8234   -1.9665 C.3     1  LIG1        0.0841
     27 H           6.6170   -1.0767   -2.1164 H       1  LIG1        0.0580
     28 N           6.3091   -2.7769   -0.9781 N.am    1  LIG1       -0.3001
     29 C           7.6040   -2.7273   -0.5024 C.2     1  LIG1        0.2663
     30 O           8.4304   -1.9182   -0.9185 O.2     1  LIG1       -0.2684
     31 C           7.9587   -3.7466    0.4823 C.ar    1  LIG1        0.1678
     32 C           9.2606   -4.2579    0.7208 C.ar    1  LIG1        0.0125
     33 C           9.0935   -5.1913    1.7103 C.ar    1  LIG1        0.1350
     34 C          10.0104   -6.1095    2.4108 C.3     1  LIG1       -0.0037
     35 O           7.7798   -5.2354    2.0613 O.2     1  LIG1       -0.3592
     36 N           7.0576   -4.3463    1.2780 N.ar    1  LIG1       -0.0734
     37 C           5.5202   -2.4451   -3.3509 C.3     1  LIG1       -0.0213
     38 C           6.7209   -3.2275   -3.8969 C.3     1  LIG1       -0.0606
     39 C           4.2750   -3.3341   -3.3890 C.3     1  LIG1       -0.0606
     40 C           2.2000    0.8929   -0.6173 C.3     1  LIG1       -0.0162
     41 C           1.1889    0.6121   -1.7137 C.ar    1  LIG1       -0.0465
     42 C          -0.0744    0.1210   -1.3354 C.ar    1  LIG1       -0.0558
     43 C          -1.0369   -0.1990   -2.2964 C.ar    1  LIG1       -0.0262
     44 C          -0.7312   -0.0610   -3.6428 C.ar    1  LIG1        0.1234
     45 F          -1.6410   -0.3859   -4.5699 F       1  LIG1       -0.2055
     46 C           0.4996    0.4337   -4.0425 C.ar    1  LIG1       -0.0262
     47 C           1.4334    0.8148   -3.0788 C.ar    1  LIG1       -0.0558
     48 H           6.6037   10.9461    1.9283 H       1  LIG1        0.0262
     49 H           5.1697   10.1183    2.5892 H       1  LIG1        0.0262
     50 H           5.7209    9.7491    0.9617 H       1  LIG1        0.0262
     51 H           7.2576    9.1588    3.5529 H       1  LIG1        0.0695
     52 H           7.8756    8.7995    1.9450 H       1  LIG1        0.0695
     53 H           5.4229    5.3534    2.6887 H       1  LIG1        0.0686
     54 H           6.8561    4.8925   -0.0058 H       1  LIG1        0.0593
     55 H           8.0746    2.5597    0.2958 H       1  LIG1        0.0293
     56 H           7.3958    1.3675    1.3893 H       1  LIG1        0.0293
     57 H          10.5540    2.9719    2.9097 H       1  LIG1        0.0288
     58 H          10.2359    2.0186    1.4551 H       1  LIG1        0.0288
     59 H          10.4958    0.8183    3.9046 H       1  LIG1        0.0462
     60 H           9.2174    0.2343    2.7965 H       1  LIG1        0.0462
     61 H           8.2952    1.1146    5.0934 H       1  LIG1        0.1487
     62 H           5.4986    3.0440   -0.8373 H       1  LIG1        0.1493
     63 H           5.4067    0.7919   -2.1148 H       1  LIG1        0.0350
     64 H           3.9601    0.2094   -2.8877 H       1  LIG1        0.0350
     65 H           5.6371   -3.3614   -0.4843 H       1  LIG1        0.1498
     66 H          10.1746   -3.9912    0.2112 H       1  LIG1        0.0676
     67 H          10.9121   -5.5788    2.7328 H       1  LIG1        0.0309
     68 H          10.3155   -6.9248    1.7466 H       1  LIG1        0.0309
     69 H           9.5418   -6.5486    3.2964 H       1  LIG1        0.0309
     70 H           5.3314   -1.6154   -4.0464 H       1  LIG1        0.0317
     71 H           6.9333   -4.1139   -3.2893 H       1  LIG1        0.0233
     72 H           7.6196   -2.6027   -3.9180 H       1  LIG1        0.0233
     73 H           6.5291   -3.5692   -4.9201 H       1  LIG1        0.0233
     74 H           4.3861   -4.2147   -2.7496 H       1  LIG1        0.0233
     75 H           4.0921   -3.6843   -4.4126 H       1  LIG1        0.0233
     76 H           3.3802   -2.7866   -3.0781 H       1  LIG1        0.0233
     77 H           1.7784    1.6985    0.0026 H       1  LIG1        0.0321
     78 H           2.2385    0.0176    0.0414 H       1  LIG1        0.0321
     79 H          -0.3144   -0.0145   -0.2814 H       1  LIG1        0.0621
     80 H          -2.0162   -0.5612   -2.0020 H       1  LIG1        0.0646
     81 H           0.7264    0.5327   -5.0989 H       1  LIG1        0.0646
     82 H           2.3490    1.2708   -3.4346 H       1  LIG1        0.0621
@<TRIPOS>BOND
     1     1     2    1
     2     2     3    1
     3     3     4    1
     4     4     5    2
     5     4     6    1
     6     6     7    2
     7     8    10    1
     8    11    13    1
     9    13    14    1
    10    14    15    1
    11    15    16   am
    12    11    16    1
    13    16    17    2
    14     8    18    1
    15    18    19   am
    16    19    20    2
    17    19    21    1
    18    21    22    1
    19    21    23    1
    20    23    24    1
    21    24    25    2
    22    24    26    1
    23    26    27    1
    24    26    28    1
    25    28    29   am
    26    29    30    2
    27    29    31    1
    28    31    32   ar
    29    32    33   ar
    30    33    34    1
    31    33    35   ar
    32    35    36   ar
    33    31    36   ar
    34    26    37    1
    35    37    38    1
    36    37    39    1
    37    21    40    1
    38    40    41    1
    39    41    42   ar
    40    42    43   ar
    41    43    44   ar
    42    44    45    1
    43    44    46   ar
    44    46    47   ar
    45    41    47   ar
    46    11    12    1
    47    11    10    1
    48     8     9    1
    49     8     7    1
    50     1    48    1
    51     1    49    1
    52     1    50    1
    53     2    51    1
    54     2    52    1
    55     6    53    1
    56     7    54    1
    57    10    55    1
    58    10    56    1
    59    13    57    1
    60    13    58    1
    61    14    59    1
    62    14    60    1
    63    15    61    1
    64    18    62    1
    65    23    63    1
    66    23    64    1
    67    28    65    1
    68    32    66    1
    69    34    67    1
    70    34    68    1
    71    34    69    1
    72    37    70    1
    73    38    71    1
    74    38    72    1
    75    38    73    1
    76    39    74    1
    77    39    75    1
    78    39    76    1
    79    40    77    1
    80    40    78    1
    81    42    79    1
    82    43    80    1
    83    46    81    1
    84    47    82    1
@<TRIPOS>MOLECULE
*****
 58 59 0 0 0
SMALL
GASTEIGER

@<TRIPOS>ATOM
      1 CD1         1.9536   -2.5579   -4.3136 C.3     1  LEU1       -0.0626
      2 CG          2.8642   -1.3600   -4.0443 C.3     1  LEU1       -0.0446
      3 CD2         2.0732   -0.2465   -3.3470 C.3     1  LEU1       -0.0626
      4 CB          4.0936   -1.6997   -3.1758 C.3     1  LEU1       -0.0235
      5 CA          5.0247   -2.8044   -3.6876 C.3     1  LEU1        0.1027
      6 HA          4.4770   -3.7520   -3.7091 H       1  LEU1        0.0596
      7 N           6.1618   -2.9665   -2.7777 N.am    1  LEU1       -0.2698
      8 C           6.6998   -4.1849   -2.4491 C.2     0  UNK0        0.4012
      9 O           6.2046   -5.2613   -2.6621 O.2     0  UNK0       -0.2265
     10 O           7.8498   -3.9550   -1.7488 O.3     0  UNK0       -0.4456
     11 C           8.2312   -4.9953   -0.8389 C.3     0  UNK0        0.1191
     12 C           7.5325   -4.6690    0.4549 C.ar    0  UNK0       -0.0103
     13 C           8.1407   -3.8548    1.4184 C.ar    0  UNK0       -0.0554
     14 C           7.4537   -3.5196    2.5850 C.ar    0  UNK0       -0.0614
     15 C           6.1289   -3.9203    2.7553 C.ar    0  UNK0       -0.0617
     16 C           5.4900   -4.6597    1.7636 C.ar    0  UNK0       -0.0614
     17 C           6.1998   -5.0650    0.6376 C.ar    0  UNK0       -0.0554
     18 C           5.5867   -2.6007   -5.1158 C.2     1  LEU1        0.2340
     19 O           5.7799   -3.5591   -5.8660 O.2     1  LEU1       -0.2738
     20 N           6.0257   -1.3332   -5.4590 N.am    2  UNK2       -0.3044
     21 C           6.6218   -1.1339   -6.7741 C.3     2  UNK2        0.0791
     22 C           5.6047   -0.9414   -7.8987 C.2     2  UNK2        0.1404
     23 O           4.3894   -0.8666   -7.7497 O.2     2  UNK2       -0.2991
     24 C           7.6517   -0.0021   -6.7954 C.3     2  UNK2       -0.0167
     25 C           7.0995    1.4120   -6.5781 C.3     2  UNK2        0.0390
     26 H           6.3335    1.6625   -7.3186 H       2  UNK2        0.0395
     27 C           8.2510    2.4282   -6.6310 C.3     2  UNK2       -0.0262
     28 C           8.7504    2.4977   -5.1972 C.3     2  UNK2        0.0123
     29 N           7.5769    2.2259   -4.4272 N.am    2  UNK2       -0.3151
     30 C           6.5668    1.6775   -5.1836 C.2     2  UNK2        0.2162
     31 O           5.4503    1.4133   -4.7766 O.2     2  UNK2       -0.2755
     32 HD11        1.0877   -2.2544   -4.9142 H       1  LEU1        0.0232
     33 HD12        1.5771   -2.9950   -3.3830 H       1  LEU1        0.0232
     34 HD13        2.4751   -3.3387   -4.8753 H       1  LEU1        0.0232
     35 HG          3.1972   -0.9688   -5.0127 H       1  LEU1        0.0296
     36 HD21        1.7532   -0.5548   -2.3450 H       1  LEU1        0.0232
     37 HD22        1.1813    0.0289   -3.9184 H       1  LEU1        0.0232
     38 HD23        2.6922    0.6509   -3.2395 H       1  LEU1        0.0232
     39 HB1         3.7447   -1.9925   -2.1756 H       1  LEU1        0.0290
     40 HB2         4.6724   -0.7797   -3.0234 H       1  LEU1        0.0290
     41 H           6.5455   -2.1785   -2.2812 H       1  LEU1        0.1528
     42 H           9.3203   -4.9586   -0.7016 H       0  UNK0        0.0749
     43 H           7.9970   -6.0080   -1.1907 H       0  UNK0        0.0749
     44 H           9.1431   -3.4641    1.2573 H       0  UNK0        0.0621
     45 H           7.9446   -2.9294    3.3538 H       0  UNK0        0.0618
     46 H           5.5879   -3.6455    3.6561 H       0  UNK0        0.0618
     47 H           4.4387   -4.9168    1.8577 H       0  UNK0        0.0618
     48 H           5.6966   -5.6612   -0.1226 H       0  UNK0        0.0621
     49 H           5.5523   -0.5395   -5.0276 H       2  UNK2        0.1494
     50 H           7.1658   -2.0516   -7.0329 H       2  UNK2        0.0574
     51 H           6.0488   -0.8588   -8.9083 H       2  UNK2        0.1046
     52 H           8.1384   -0.0129   -7.7821 H       2  UNK2        0.0294
     53 H           8.4393   -0.2285   -6.0656 H       2  UNK2        0.0294
     54 H           7.8502    3.4041   -6.9297 H       2  UNK2        0.0288
     55 H           9.0420    2.1581   -7.3366 H       2  UNK2        0.0288
     56 H           9.1432    3.4821   -4.9366 H       2  UNK2        0.0462
     57 H           9.4988    1.7294   -4.9763 H       2  UNK2        0.0462
     58 H           7.4055    2.5400   -3.4791 H       2  UNK2        0.1487
@<TRIPOS>BOND
     1     1     2    1
     2     2     3    1
     3     2     4    1
     4     5     7    1
     5     7     8   am
     6     8     9    2
     7     8    10    1
     8    10    11    1
     9    11    12    1
    10    12    13   ar
    11    13    14   ar
    12    14    15   ar
    13    15    16   ar
    14    16    17   ar
    15    12    17   ar
    16     5    18    1
    17    18    19    2
    18    18    20   am
    19    20    21    1
    20    21    22    1
    21    22    23    2
    22    21    24    1
    23    25    27    1
    24    27    28    1
    25    28    29    1
    26    29    30   am
    27    25    30    1
    28    30    31    2
    29    25    26    1
    30    25    24    1
    31     5     6    1
    32     5     4    1
    33     1    32    1
    34     1    33    1
    35     1    34    1
    36     2    35    1
    37     3    36    1
    38     3    37    1
    39     3    38    1
    40     4    39    1
    41     4    40    1
    42     7    41    1
    43    11    42    1
    44    11    43    1
    45    13    44    1
    46    14    45    1
    47    15    46    1
    48    16    47    1
    49    17    48    1
    50    20    49    1
    51    21    50    1
    52    22    51    1
    53    24    52    1
    54    24    53    1
    55    27    54    1
    56    27    55    1
    57    28    56    1
    58    28    57    1
    59    29    58    1
@<TRIPOS>MOLECULE
*****
 87 90 0 0 0
SMALL
GASTEIGER

@<TRIPOS>ATOM
      1 C          16.0251   -1.3544    2.7663 C.3     1  LIG1       -0.0037
      2 C          15.7058   -2.4526    1.8347 C.ar    1  LIG1        0.1350
      3 C          16.3710   -3.0484    0.7943 C.ar    1  LIG1        0.0125
      4 C          15.4020   -3.9002    0.1923 C.ar    1  LIG1        0.1678
      5 C          15.5203   -4.6026   -1.0840 C.2     1  LIG1        0.2663
      6 O          16.2305   -4.1591   -2.0020 O.2     1  LIG1       -0.2684
      7 N          14.7927   -5.7626   -1.2102 N.am    1  LIG1       -0.3001
      8 C          14.7585   -6.5756   -2.4401 C.3     1  LIG1        0.0841
      9 H          15.6508   -6.3044   -3.0200 H       1  LIG1        0.0580
     10 C          13.5631   -6.1985   -3.3648 C.2     1  LIG1        0.1544
     11 O          12.8619   -7.0699   -3.8897 O.2     1  LIG1       -0.2954
     12 C          13.2823   -4.7223   -3.6827 C.3     1  LIG1        0.0191
     13 C          13.9505   -4.0386   -4.9072 C.3     1  LIG1        0.0462
     14 H          15.0260   -4.2390   -4.8766 H       1  LIG1        0.0401
     15 C          13.3725   -4.5626   -6.2438 C.3     1  LIG1       -0.0162
     16 C          13.8921   -3.9157   -7.5169 C.ar    1  LIG1       -0.0465
     17 C          15.2567   -3.9393   -7.8464 C.ar    1  LIG1       -0.0558
     18 C          15.7192   -3.3079   -9.0050 C.ar    1  LIG1       -0.0262
     19 C          14.8124   -2.7140   -9.8739 C.ar    1  LIG1        0.1234
     20 F          15.2554   -2.1456  -11.0038 F       1  LIG1       -0.2055
     21 C          13.4536   -2.7140   -9.5920 C.ar    1  LIG1       -0.0262
     22 C          12.9966   -3.2947   -8.4059 C.ar    1  LIG1       -0.0558
     23 C          13.7288   -2.5037   -4.7733 C.2     1  LIG1        0.2173
     24 O          12.7872   -2.0436   -4.1307 O.2     1  LIG1       -0.2755
     25 N          14.6515   -1.7215   -5.4394 N.am    1  LIG1       -0.3088
     26 C          14.7873   -0.2658   -5.3836 C.3     1  LIG1        0.0426
     27 H          14.7608    0.0447   -4.3303 H       1  LIG1        0.0543
     28 C          13.5728    0.3103   -6.1121 C.2     1  LIG1       -0.0590
     29 C          12.4107    0.5321   -5.4739 C.2     1  LIG1       -0.0018
     30 C          11.0997    0.9168   -6.1035 C.2     1  LIG1        0.2392
     31 O          11.0000    1.1258   -7.3022 O.2     1  LIG1       -0.2706
     32 N          10.0513    1.0471   -5.2009 N.am    1  LIG1       -0.2980
     33 C          10.0857    0.7583   -3.7731 C.3     1  LIG1        0.0150
     34 C           8.6699    0.9941   -3.2786 C.3     1  LIG1       -0.0357
     35 C           8.1421    2.0315   -4.2587 C.3     1  LIG1       -0.0357
     36 C           8.7589    1.5925   -5.5848 C.3     1  LIG1        0.0150
     37 C          16.1487    0.2256   -5.9885 C.3     1  LIG1       -0.0197
     38 C          17.4553   -0.2981   -5.3248 C.3     1  LIG1        0.0389
     39 H          17.4560   -0.0700   -4.2526 H       1  LIG1        0.0395
     40 C          18.7177    0.3062   -5.9872 C.3     1  LIG1       -0.0262
     41 C          19.7962   -0.7550   -5.8421 C.3     1  LIG1        0.0123
     42 N          19.0522   -1.9647   -5.8893 N.am    1  LIG1       -0.3151
     43 C          17.7502   -1.7915   -5.4816 C.2     1  LIG1        0.2162
     44 O          17.0082   -2.7160   -5.2527 O.2     1  LIG1       -0.2755
     45 C          14.8982   -8.0985   -2.0966 C.3     1  LIG1       -0.0213
     46 C          13.6940   -8.7455   -1.3955 C.3     1  LIG1       -0.0606
     47 C          15.2664   -8.9606   -3.3143 C.3     1  LIG1       -0.0606
     48 N          14.2825   -3.9394    0.9333 N.ar    1  LIG1       -0.0734
     49 O          14.4669   -3.0052    1.9429 O.2     1  LIG1       -0.3592
     50 H          16.3748   -1.7384    3.7282 H       1  LIG1        0.0309
     51 H          15.1395   -0.7343    2.9408 H       1  LIG1        0.0309
     52 H          16.8027   -0.7048    2.3496 H       1  LIG1        0.0309
     53 H          17.3751   -2.8460    0.4500 H       1  LIG1        0.0676
     54 H          14.1858   -6.0008   -0.4273 H       1  LIG1        0.1498
     55 H          13.5261   -4.1510   -2.7851 H       1  LIG1        0.0350
     56 H          12.1920   -4.6434   -3.7812 H       1  LIG1        0.0350
     57 H          12.2782   -4.4701   -6.2247 H       1  LIG1        0.0321
     58 H          13.5796   -5.6373   -6.3269 H       1  LIG1        0.0321
     59 H          15.9728   -4.4382   -7.1973 H       1  LIG1        0.0621
     60 H          16.7782   -3.2845   -9.2402 H       1  LIG1        0.0646
     61 H          12.7573   -2.2617  -10.2915 H       1  LIG1        0.0646
     62 H          11.9318   -3.2579   -8.1828 H       1  LIG1        0.0621
     63 H          15.4860   -2.2353   -5.7037 H       1  LIG1        0.1493
     64 H          13.6260    0.4578   -7.1876 H       1  LIG1        0.0592
     65 H          12.3807    0.3375   -4.4130 H       1  LIG1        0.0667
     66 H          10.7841    1.4609   -3.3056 H       1  LIG1        0.0465
     67 H          10.4156   -0.2689   -3.5902 H       1  LIG1        0.0465
     68 H           8.6489    1.3298   -2.2376 H       1  LIG1        0.0281
     69 H           8.0858    0.0697   -3.3539 H       1  LIG1        0.0281
     70 H           8.5226    3.0223   -3.9802 H       1  LIG1        0.0281
     71 H           7.0503    2.0762   -4.2822 H       1  LIG1        0.0281
     72 H           8.8665    2.4177   -6.2939 H       1  LIG1        0.0465
     73 H           8.1675    0.7941   -6.0481 H       1  LIG1        0.0465
     74 H          16.1756    1.3258   -5.9191 H       1  LIG1        0.0293
     75 H          16.1787   -0.0039   -7.0619 H       1  LIG1        0.0293
     76 H          19.0219    1.2570   -5.5424 H       1  LIG1        0.0288
     77 H          18.5385    0.4697   -7.0566 H       1  LIG1        0.0288
     78 H          20.3101   -0.7093   -4.8768 H       1  LIG1        0.0462
     79 H          20.5284   -0.7322   -6.6531 H       1  LIG1        0.0462
     80 H          19.4440   -2.8998   -5.9265 H       1  LIG1        0.1487
     81 H          15.7461   -8.1792   -1.3996 H       1  LIG1        0.0317
     82 H          13.2953   -8.1257   -0.5895 H       1  LIG1        0.0233
     83 H          13.9899   -9.7087   -0.9572 H       1  LIG1        0.0233
     84 H          12.8804   -8.9637   -2.0956 H       1  LIG1        0.0233
     85 H          15.9560   -8.4457   -3.9884 H       1  LIG1        0.0233
     86 H          14.3821   -9.2573   -3.8888 H       1  LIG1        0.0233
     87 H          15.7552   -9.8854   -2.9827 H       1  LIG1        0.0233
@<TRIPOS>BOND
     1     1     2    1
     2     2     3   ar
     3     3     4   ar
     4     4     5    1
     5     5     6    2
     6     5     7   am
     7     8    10    1
     8    10    11    2
     9    10    12    1
    10    12    13    1
    11    13    14    1
    12    13    15    1
    13    15    16    1
    14    16    17   ar
    15    17    18   ar
    16    18    19   ar
    17    19    20    1
    18    19    21   ar
    19    21    22   ar
    20    16    22   ar
    21    13    23    1
    22    23    24    2
    23    23    25   am
    24    26    28    1
    25    28    29    2
    26    29    30    1
    27    30    31    2
    28    30    32   am
    29    32    33    1
    30    33    34    1
    31    34    35    1
    32    35    36    1
    33    32    36    1
    34    26    37    1
    35    38    40    1
    36    40    41    1
    37    41    42    1
    38    42    43   am
    39    38    43    1
    40    43    44    2
    41     8    45    1
    42    45    46    1
    43    45    47    1
    44     4    48   ar
    45    48    49   ar
    46     2    49   ar
    47    38    39    1
    48    38    37    1
    49     8     9    1
    50     8     7    1
    51    26    27    1
    52    26    25    1
    53     1    50    1
    54     1    51    1
    55     1    52    1
    56     3    53    1
    57     7    54    1
    58    12    55    1
    59    12    56    1
    60    15    57    1
    61    15    58    1
    62    17    59    1
    63    18    60    1
    64    21    61    1
    65    22    62    1
    66    25    63    1
    67    28    64    1
    68    29    65    1
    69    33    66    1
    70    33    67    1
    71    34    68    1
    72    34    69    1
    73    35    70    1
    74    35    71    1
    75    36    72    1
    76    36    73    1
    77    37    74    1
    78    37    75    1
    79    40    76    1
    80    40    77    1
    81    41    78    1
    82    41    79    1
    83    42    80    1
    84    45    81    1
    85    46    82    1
    86    46    83    1
    87    46    84    1
    88    47    85    1
    89    47    86    1
    90    47    87    1
@<TRIPOS>MOLECULE
*****
 89 92 0 0 0
SMALL
GASTEIGER

@<TRIPOS>ATOM
      1 C          10.7653   -8.0443  -14.0081 C.3     1  LIG1       -0.0037
      2 C          11.7980   -7.3706  -13.1906 C.ar    1  LIG1        0.1350
      3 C          12.7607   -7.7646  -12.2889 C.ar    1  LIG1        0.0125
      4 C          13.4858   -6.5776  -11.9780 C.ar    1  LIG1        0.1678
      5 C          14.6902   -6.4003  -11.1482 C.2     1  LIG1        0.2663
      6 O          14.9963   -7.1844  -10.2296 O.2     1  LIG1       -0.2684
      7 N          15.4673   -5.3153  -11.4953 N.am    1  LIG1       -0.3001
      8 C          16.7423   -4.9590  -10.8578 C.3     1  LIG1        0.0841
      9 H          17.3562   -5.8696  -10.8535 H       1  LIG1        0.0580
     10 C          16.4801   -4.5768   -9.3718 C.2     1  LIG1        0.1544
     11 O          15.4385   -4.0082   -9.0307 O.2     1  LIG1       -0.2954
     12 C          17.5570   -4.9604   -8.3417 C.3     1  LIG1        0.0191
     13 C          17.2208   -4.4920   -6.9058 C.3     1  LIG1        0.0462
     14 H          16.2546   -4.9181   -6.6068 H       1  LIG1        0.0401
     15 C          18.2846   -4.8694   -5.8319 C.3     1  LIG1       -0.0162
     16 C          18.6617   -6.3266   -5.5959 C.ar    1  LIG1       -0.0465
     17 C          17.7596   -7.3886   -5.7492 C.ar    1  LIG1       -0.0558
     18 C          18.1702   -8.7132   -5.5349 C.ar    1  LIG1       -0.0262
     19 C          19.4635   -8.9816   -5.1037 C.ar    1  LIG1        0.1234
     20 F          19.8545  -10.2503   -4.9189 F       1  LIG1       -0.2055
     21 C          20.3558   -7.9475   -4.8705 C.ar    1  LIG1       -0.0262
     22 C          19.9604   -6.6288   -5.1280 C.ar    1  LIG1       -0.0558
     23 C          17.1156   -2.9567   -6.9419 C.2     1  LIG1        0.2173
     24 O          18.0521   -2.2476   -7.2959 O.2     1  LIG1       -0.2755
     25 N          15.8972   -2.4513   -6.5593 N.am    1  LIG1       -0.3088
     26 C          15.5434   -1.0382   -6.6407 C.3     1  LIG1        0.0427
     27 H          16.4287   -0.4453   -6.3831 H       1  LIG1        0.0543
     28 C          14.5034   -0.8697   -5.5847 C.2     1  LIG1       -0.0572
     29 C          14.7005   -1.0325   -4.2706 C.2     1  LIG1        0.0203
     30 C          13.6428   -0.8122   -3.2761 C.2     1  LIG1        0.3320
     31 O          13.8967   -0.8568   -2.1036 O.2     1  LIG1       -0.2456
     32 O          12.4176   -0.6431   -3.8541 O.3     1  LIG1       -0.4568
     33 C          11.2959   -0.8893   -2.9982 C.3     1  LIG1        0.1178
     34 C          10.9748    0.2768   -2.1046 C.ar    1  LIG1       -0.0103
     35 C          10.1259    1.3084   -2.5211 C.ar    1  LIG1       -0.0554
     36 C           9.8905    2.4017   -1.6840 C.ar    1  LIG1       -0.0614
     37 C          10.5016    2.4740   -0.4316 C.ar    1  LIG1       -0.0617
     38 C          11.3410    1.4506   -0.0069 C.ar    1  LIG1       -0.0614
     39 C          11.5648    0.3563   -0.8349 C.ar    1  LIG1       -0.0554
     40 C          15.0700   -0.6002   -8.0593 C.3     1  LIG1       -0.0197
     41 C          14.6639    0.8871   -8.2384 C.3     1  LIG1        0.0389
     42 H          15.5308    1.5394   -8.0700 H       1  LIG1        0.0395
     43 C          13.4758    1.3578   -7.3872 C.3     1  LIG1       -0.0262
     44 C          12.7259    2.3705   -8.2160 C.3     1  LIG1        0.0123
     45 N          13.0052    1.9557   -9.5489 N.am    1  LIG1       -0.3151
     46 C          14.1532    1.1834   -9.6449 C.2     1  LIG1        0.2162
     47 O          14.6711    0.8655  -10.6951 O.2     1  LIG1       -0.2755
     48 C          17.5043   -3.8297  -11.6182 C.3     1  LIG1       -0.0213
     49 C          17.8243   -4.1984  -13.0783 C.3     1  LIG1       -0.0606
     50 C          16.7946   -2.4687  -11.6092 C.3     1  LIG1       -0.0606
     51 N          12.9460   -5.5248  -12.6331 N.ar    1  LIG1       -0.0734
     52 O          11.8821   -6.0237  -13.3559 O.2     1  LIG1       -0.3592
     53 H          10.7310   -7.6043  -15.0121 H       1  LIG1        0.0309
     54 H           9.7724   -7.9292  -13.5623 H       1  LIG1        0.0309
     55 H          10.9697   -9.1128  -14.1270 H       1  LIG1        0.0309
     56 H          12.9645   -8.7709  -11.9473 H       1  LIG1        0.0676
     57 H          15.0889   -4.7124  -12.2270 H       1  LIG1        0.1498
     58 H          18.5116   -4.5330   -8.6664 H       1  LIG1        0.0350
     59 H          17.6372   -6.0515   -8.3644 H       1  LIG1        0.0350
     60 H          17.9413   -4.4796   -4.8615 H       1  LIG1        0.0321
     61 H          19.2089   -4.3193   -6.0550 H       1  LIG1        0.0321
     62 H          16.7297   -7.2114   -6.0466 H       1  LIG1        0.0621
     63 H          17.4885   -9.5409   -5.7064 H       1  LIG1        0.0646
     64 H          21.3527   -8.1732   -4.5028 H       1  LIG1        0.0646
     65 H          20.6871   -5.8344   -4.9640 H       1  LIG1        0.0621
     66 H          15.1692   -3.1039   -6.2943 H       1  LIG1        0.1493
     67 H          13.5015   -0.6095   -5.8970 H       1  LIG1        0.0593
     68 H          15.6467   -1.3689   -3.8646 H       1  LIG1        0.0686
     69 H          11.4555   -1.8085   -2.4258 H       1  LIG1        0.0749
     70 H          10.4397   -1.0943   -3.6574 H       1  LIG1        0.0749
     71 H           9.6464    1.2710   -3.4965 H       1  LIG1        0.0621
     72 H           9.2388    3.2066   -2.0122 H       1  LIG1        0.0618
     73 H          10.3310    3.3310    0.2131 H       1  LIG1        0.0618
     74 H          11.8369    1.5015    0.9582 H       1  LIG1        0.0618
     75 H          12.2356   -0.4285   -0.4902 H       1  LIG1        0.0621
     76 H          14.2381   -1.2392   -8.3864 H       1  LIG1        0.0293
     77 H          15.8838   -0.8102   -8.7661 H       1  LIG1        0.0293
     78 H          13.7866    1.7652   -6.4204 H       1  LIG1        0.0288
     79 H          12.7752    0.5336   -7.2300 H       1  LIG1        0.0288
     80 H          13.0876    3.3907   -8.0694 H       1  LIG1        0.0462
     81 H          11.6486    2.3276   -8.0249 H       1  LIG1        0.0462
     82 H          12.5562    2.3185  -10.3808 H       1  LIG1        0.1487
     83 H          18.4650   -3.6770  -11.1081 H       1  LIG1        0.0317
     84 H          16.9532   -4.6003  -13.6059 H       1  LIG1        0.0233
     85 H          18.6252   -4.9422  -13.1279 H       1  LIG1        0.0233
     86 H          18.1608   -3.3191  -13.6429 H       1  LIG1        0.0233
     87 H          15.9351   -2.4505  -12.2867 H       1  LIG1        0.0233
     88 H          17.4887   -1.6847  -11.9390 H       1  LIG1        0.0233
     89 H          16.4577   -2.1869  -10.6104 H       1  LIG1        0.0233
@<TRIPOS>BOND
     1     1     2    1
     2     2     3   ar
     3     3     4   ar
     4     4     5    1
     5     5     6    2
     6     5     7   am
     7     8    10    1
     8    10    11    2
     9    10    12    1
    10    12    13    1
    11    13    14    1
    12    13    15    1
    13    15    16    1
    14    16    17   ar
    15    17    18   ar
    16    18    19   ar
    17    19    20    1
    18    19    21   ar
    19    21    22   ar
    20    16    22   ar
    21    13    23    1
    22    23    24    2
    23    23    25   am
    24    26    28    1
    25    28    29    2
    26    29    30    1
    27    30    31    2
    28    30    32    1
    29    32    33    1
    30    33    34    1
    31    34    35   ar
    32    35    36   ar
    33    36    37   ar
    34    37    38   ar
    35    38    39   ar
    36    34    39   ar
    37    26    40    1
    38    41    43    1
    39    43    44    1
    40    44    45    1
    41    45    46   am
    42    41    46    1
    43    46    47    2
    44     8    48    1
    45    48    49    1
    46    48    50    1
    47     4    51   ar
    48    51    52   ar
    49     2    52   ar
    50     8     9    1
    51     8     7    1
    52    26    27    1
    53    26    25    1
    54    41    42    1
    55    41    40    1
    56     1    53    1
    57     1    54    1
    58     1    55    1
    59     3    56    1
    60     7    57    1
    61    12    58    1
    62    12    59    1
    63    15    60    1
    64    15    61    1
    65    17    62    1
    66    18    63    1
    67    21    64    1
    68    22    65    1
    69    25    66    1
    70    28    67    1
    71    29    68    1
    72    33    69    1
    73    33    70    1
    74    35    71    1
    75    36    72    1
    76    37    73    1
    77    38    74    1
    78    39    75    1
    79    40    76    1
    80    40    77    1
    81    43    78    1
    82    43    79    1
    83    44    80    1
    84    44    81    1
    85    45    82    1
    86    48    83    1
    87    49    84    1
    88    49    85    1
    89    49    86    1
    90    50    87    1
    91    50    88    1
    92    50    89    1
@<TRIPOS>MOLECULE
*****
 86 89 0 0 0
SMALL
GASTEIGER

@<TRIPOS>ATOM
      1 C          11.2357   -5.1181    4.6162 C.3     1  LIG1       -0.0037
      2 C          11.8160   -4.8496    3.2850 C.ar    1  LIG1        0.1350
      3 C          11.3927   -5.0214    1.9897 C.ar    1  LIG1        0.0125
      4 C          12.4483   -4.4909    1.1896 C.ar    1  LIG1        0.1678
      5 C          12.4658   -4.3594   -0.2769 C.2     1  LIG1        0.2663
      6 O          11.4387   -4.3099   -0.9219 O.2     1  LIG1       -0.2684
      7 N          13.7416   -4.3411   -0.8591 N.am    1  LIG1       -0.3001
      8 C          13.9643   -4.2672   -2.3137 C.3     1  LIG1        0.0841
      9 H          13.1453   -4.8185   -2.7885 H       1  LIG1        0.0580
     10 C          15.2932   -4.9864   -2.7337 C.2     1  LIG1        0.1544
     11 O          16.3761   -4.6846   -2.2172 O.2     1  LIG1       -0.2954
     12 C          15.2590   -6.1468   -3.7436 C.3     1  LIG1        0.0191
     13 C          15.5601   -5.8369   -5.2409 C.3     1  LIG1        0.0462
     14 H          16.6049   -5.5063   -5.2647 H       1  LIG1        0.0401
     15 C          15.5207   -7.1314   -6.1176 C.3     1  LIG1       -0.0162
     16 C          15.6600   -6.9836   -7.6291 C.ar    1  LIG1       -0.0465
     17 C          14.5104   -6.8816   -8.4346 C.ar    1  LIG1       -0.0558
     18 C          14.6075   -6.7879   -9.8275 C.ar    1  LIG1       -0.0262
     19 C          15.8548   -6.8393  -10.4311 C.ar    1  LIG1        0.1234
     20 F          15.9505   -6.7618  -11.7659 F       1  LIG1       -0.2055
     21 C          17.0064   -6.9667   -9.6640 C.ar    1  LIG1       -0.0262
     22 C          16.9132   -7.0110   -8.2647 C.ar    1  LIG1       -0.0558
     23 C          14.7271   -4.6969   -5.8614 C.2     1  LIG1        0.2173
     24 O          13.5527   -4.8412   -6.1952 O.2     1  LIG1       -0.2755
     25 N          15.4398   -3.5166   -6.0006 N.am    1  LIG1       -0.3088
     26 C          15.0542   -2.3662   -6.8415 C.3     1  LIG1        0.0427
     27 H          14.5085   -2.7684   -7.7027 H       1  LIG1        0.0543
     28 C          16.3523   -1.7502   -7.3326 C.2     1  LIG1       -0.0572
     29 C          17.2233   -1.0288   -6.5892 C.2     1  LIG1        0.0203
     30 C          18.4878   -0.4489   -7.0660 C.2     1  LIG1        0.3319
     31 O          19.1588    0.3304   -6.3648 O.2     1  LIG1       -0.2456
     32 O          18.8384   -0.9250   -8.2752 O.3     1  LIG1       -0.4583
     33 C          20.1735   -0.5839   -8.7097 C.3     1  LIG1        0.1034
     34 C          21.3321   -1.3623   -8.0386 C.3     1  LIG1       -0.0155
     35 C          21.9416   -1.5984   -9.4272 C.3     1  LIG1       -0.0464
     36 C          20.5880   -1.2299  -10.0477 C.3     1  LIG1       -0.0155
     37 C          14.1657   -1.3161   -6.1242 C.3     1  LIG1       -0.0197
     38 C          13.7193   -0.1529   -7.0346 C.3     1  LIG1        0.0389
     39 H          14.5651    0.3240   -7.5380 H       1  LIG1        0.0395
     40 C          12.9018    0.9261   -6.3004 C.3     1  LIG1       -0.0262
     41 C          11.4759    0.4084   -6.3450 C.3     1  LIG1        0.0123
     42 N          11.4417   -0.3315   -7.5681 N.am    1  LIG1       -0.3151
     43 C          12.7005   -0.6186   -8.0519 C.2     1  LIG1        0.2162
     44 O          12.9437   -1.1738   -9.1042 O.2     1  LIG1       -0.2755
     45 C          13.9409   -2.8064   -2.8474 C.3     1  LIG1       -0.0213
     46 C          12.6691   -2.0261   -2.4930 C.3     1  LIG1       -0.0606
     47 C          15.1706   -1.9607   -2.4941 C.3     1  LIG1       -0.0606
     48 N          13.4676   -4.0898    1.9649 N.ar    1  LIG1       -0.0734
     49 O          13.0554   -4.2902    3.2723 O.2     1  LIG1       -0.3592
     50 H          10.9176   -4.1834    5.0901 H       1  LIG1        0.0309
     51 H          11.9740   -5.5946    5.2691 H       1  LIG1        0.0309
     52 H          10.3650   -5.7786    4.5522 H       1  LIG1        0.0309
     53 H          10.4608   -5.4532    1.6534 H       1  LIG1        0.0676
     54 H          14.5326   -4.3263   -0.2245 H       1  LIG1        0.1498
     55 H          14.3506   -6.7361   -3.5771 H       1  LIG1        0.0350
     56 H          16.0714   -6.8161   -3.4052 H       1  LIG1        0.0350
     57 H          14.6095   -7.7121   -5.9176 H       1  LIG1        0.0321
     58 H          16.3417   -7.7869   -5.7885 H       1  LIG1        0.0321
     59 H          13.5204   -6.8717   -7.9813 H       1  LIG1        0.0621
     60 H          13.7175   -6.6793  -10.4401 H       1  LIG1        0.0646
     61 H          17.9682   -7.0346  -10.1641 H       1  LIG1        0.0646
     62 H          17.8298   -7.0915   -7.6860 H       1  LIG1        0.0621
     63 H          16.4129   -3.5532   -5.7287 H       1  LIG1        0.1493
     64 H          16.5415   -1.8780   -8.3986 H       1  LIG1        0.0593
     65 H          17.0383   -0.8389   -5.5353 H       1  LIG1        0.0686
     66 H          20.3345    0.5035   -8.7184 H       1  LIG1        0.0734
     67 H          21.0232   -2.2806   -7.5273 H       1  LIG1        0.0301
     68 H          21.9558   -0.7743   -7.3582 H       1  LIG1        0.0301
     69 H          22.2753   -2.6223   -9.6189 H       1  LIG1        0.0268
     70 H          22.7494   -0.9045   -9.6817 H       1  LIG1        0.0268
     71 H          19.9763   -2.0947  -10.3295 H       1  LIG1        0.0301
     72 H          20.6382   -0.5414  -10.8960 H       1  LIG1        0.0301
     73 H          14.7145   -0.8834   -5.2787 H       1  LIG1        0.0293
     74 H          13.2894   -1.8181   -5.7011 H       1  LIG1        0.0293
     75 H          12.9544    1.8584   -6.8817 H       1  LIG1        0.0288
     76 H          13.2485    1.1523   -5.2887 H       1  LIG1        0.0288
     77 H          10.7353    1.2121   -6.3798 H       1  LIG1        0.0462
     78 H          11.2520   -0.2669   -5.5139 H       1  LIG1        0.0462
     79 H          10.6109   -0.5727   -8.0943 H       1  LIG1        0.1487
     80 H          13.9410   -2.9005   -3.9315 H       1  LIG1        0.0317
     81 H          12.6576   -1.7163   -1.4420 H       1  LIG1        0.0233
     82 H          11.7722   -2.6171   -2.6978 H       1  LIG1        0.0233
     83 H          12.5918   -1.1170   -3.1001 H       1  LIG1        0.0233
     84 H          16.0984   -2.4365   -2.8199 H       1  LIG1        0.0233
     85 H          15.2384   -1.7579   -1.4214 H       1  LIG1        0.0233
     86 H          15.1370   -0.9990   -3.0179 H       1  LIG1        0.0233
@<TRIPOS>BOND
     1     1     2    1
     2     2     3   ar
     3     3     4   ar
     4     4     5    1
     5     5     6    2
     6     5     7   am
     7     8    10    1
     8    10    11    2
     9    10    12    1
    10    12    13    1
    11    13    14    1
    12    13    15    1
    13    15    16    1
    14    16    17   ar
    15    17    18   ar
    16    18    19   ar
    17    19    20    1
    18    19    21   ar
    19    21    22   ar
    20    16    22   ar
    21    13    23    1
    22    23    24    2
    23    23    25   am
    24    26    28    1
    25    28    29    2
    26    29    30    1
    27    30    31    2
    28    30    32    1
    29    32    33    1
    30    33    34    1
    31    34    35    1
    32    35    36    1
    33    33    36    1
    34    26    37    1
    35    38    40    1
    36    40    41    1
    37    41    42    1
    38    42    43   am
    39    38    43    1
    40    43    44    2
    41     8    45    1
    42    45    46    1
    43    45    47    1
    44     4    48   ar
    45    48    49   ar
    46     2    49   ar
    47    38    39    1
    48    38    37    1
    49    26    27    1
    50    26    25    1
    51     8     9    1
    52     8     7    1
    53     1    50    1
    54     1    51    1
    55     1    52    1
    56     3    53    1
    57     7    54    1
    58    12    55    1
    59    12    56    1
    60    15    57    1
    61    15    58    1
    62    17    59    1
    63    18    60    1
    64    21    61    1
    65    22    62    1
    66    25    63    1
    67    28    64    1
    68    29    65    1
    69    33    66    1
    70    34    67    1
    71    34    68    1
    72    35    69    1
    73    35    70    1
    74    36    71    1
    75    36    72    1
    76    37    73    1
    77    37    74    1
    78    40    75    1
    79    40    76    1
    80    41    77    1
    81    41    78    1
    82    42    79    1
    83    45    80    1
    84    46    81    1
    85    46    82    1
    86    46    83    1
    87    47    84    1
    88    47    85    1
    89    47    86    1
@<TRIPOS>MOLECULE
*****
 75 77 0 0 0
SMALL
GASTEIGER

@<TRIPOS>ATOM
      1 C          12.0275    3.4511  -13.3677 C.3     1  LIG1       -0.0306
      2 C          11.2384    4.0664  -12.2289 C.3     1  LIG1        0.0900
      3 O          11.9302    4.0249  -10.9795 O.3     1  LIG1       -0.4618
      4 C          11.8898    2.8313  -10.3180 C.2     1  LIG1        0.3317
      5 O          11.6329    1.7208  -10.7946 O.2     1  LIG1       -0.2456
      6 C          12.0465    3.1377   -8.8955 C.2     1  LIG1        0.0203
      7 C          11.6811    2.2819   -7.9217 C.2     1  LIG1       -0.0572
      8 C          11.6602    2.6701   -6.4679 C.3     1  LIG1        0.0427
      9 H          11.9509    3.7243   -6.4220 H       1  LIG1        0.0543
     10 C          12.6561    1.8704   -5.6140 C.3     1  LIG1       -0.0197
     11 C          12.7518    2.3445   -4.1489 C.3     1  LIG1        0.0389
     12 H          11.8149    2.1768   -3.6072 H       1  LIG1        0.0395
     13 C          13.2359    3.7923   -3.9812 C.3     1  LIG1       -0.0262
     14 C          14.7480    3.6945   -4.1082 C.3     1  LIG1        0.0123
     15 N          15.0376    2.3858   -3.6082 N.am    1  LIG1       -0.3151
     16 C          13.8871    1.6260   -3.4300 C.2     1  LIG1        0.2162
     17 O          13.8242    0.5969   -2.8122 O.2     1  LIG1       -0.2755
     18 N          10.2901    2.5421   -6.0002 N.am    1  LIG1       -0.3075
     19 C           9.5536    3.6547   -5.6562 C.2     1  LIG1        0.2340
     20 O          10.0459    4.7841   -5.6809 O.2     1  LIG1       -0.2738
     21 C           8.0863    3.3967   -5.2251 C.3     1  LIG1        0.1023
     22 H           7.5854    2.8028   -5.9991 H       1  LIG1        0.0597
     23 C           7.3633    4.7343   -5.0066 C.3     1  LIG1       -0.0243
     24 C           7.8220    5.1130   -3.6014 C.3     1  LIG1       -0.0350
     25 C           7.7721    3.7758   -2.8699 C.3     1  LIG1        0.0156
     26 N           7.9979    2.7618   -3.8962 N.am    1  LIG1       -0.2884
     27 C           7.7620    1.4004   -3.7813 C.2     1  LIG1        0.2368
     28 O           7.9811    0.6514   -4.7416 O.2     1  LIG1       -0.2735
     29 C           7.1932    0.8319   -2.4263 C.3     1  LIG1        0.1022
     30 H           6.5477    1.5815   -1.9692 H       1  LIG1        0.0597
     31 N           6.3334   -0.3365   -2.7072 N.am    1  LIG1       -0.2984
     32 C           4.9708   -0.3134   -2.9758 C.2     1  LIG1        0.2663
     33 O           4.3551   -1.3634   -3.0942 O.2     1  LIG1       -0.2684
     34 C           4.3065    0.9968   -3.0233 C.ar    1  LIG1        0.1678
     35 C           3.0112    1.3587   -2.5709 C.ar    1  LIG1        0.0125
     36 C           3.0460    2.7342   -2.5438 C.ar    1  LIG1        0.1350
     37 C           2.1778    3.7971   -2.0214 C.3     1  LIG1       -0.0037
     38 O           4.1905    3.1657   -3.1221 O.2     1  LIG1       -0.3592
     39 N           4.9301    2.0826   -3.5084 N.ar    1  LIG1       -0.0734
     40 C           8.2423    0.5664   -1.3292 C.3     1  LIG1       -0.0197
     41 C           7.6060    0.0059   -0.0447 C.3     1  LIG1       -0.0605
     42 C           9.3856   -0.3254   -1.7911 C.3     1  LIG1       -0.0605
     43 H          11.4436    3.4841  -14.2926 H       1  LIG1        0.0262
     44 H          12.2865    2.4096  -13.1613 H       1  LIG1        0.0262
     45 H          12.9657    3.9918  -13.5234 H       1  LIG1        0.0262
     46 H          10.2585    3.5835  -12.1169 H       1  LIG1        0.0695
     47 H          11.0484    5.1201  -12.4456 H       1  LIG1        0.0695
     48 H          12.3598    4.1514   -8.6512 H       1  LIG1        0.0686
     49 H          11.3441    1.2743   -8.1851 H       1  LIG1        0.0593
     50 H          13.6467    1.9357   -6.0849 H       1  LIG1        0.0293
     51 H          12.3910    0.8054   -5.6289 H       1  LIG1        0.0293
     52 H          12.9834    4.1335   -2.9679 H       1  LIG1        0.0288
     53 H          12.8021    4.5103   -4.6767 H       1  LIG1        0.0288
     54 H          15.2650    4.4390   -3.4979 H       1  LIG1        0.0462
     55 H          15.0902    3.7647   -5.1451 H       1  LIG1        0.0462
     56 H          15.9019    2.1087   -3.1598 H       1  LIG1        0.1487
     57 H           9.8216    1.6383   -6.0048 H       1  LIG1        0.1493
     58 H           6.2757    4.5846   -5.0048 H       1  LIG1        0.0288
     59 H           7.5958    5.4992   -5.7540 H       1  LIG1        0.0288
     60 H           7.1959    5.8790   -3.1374 H       1  LIG1        0.0281
     61 H           8.8492    5.4956   -3.6192 H       1  LIG1        0.0281
     62 H           6.7929    3.6435   -2.4075 H       1  LIG1        0.0465
     63 H           8.5451    3.6916   -2.1026 H       1  LIG1        0.0465
     64 H           6.7700   -1.2311   -2.8968 H       1  LIG1        0.1498
     65 H           2.2297    0.7130   -2.1989 H       1  LIG1        0.0676
     66 H           1.4780    3.3982   -1.2840 H       1  LIG1        0.0309
     67 H           1.6199    4.2681   -2.8343 H       1  LIG1        0.0309
     68 H           2.7821    4.5686   -1.5293 H       1  LIG1        0.0309
     69 H           8.6814    1.5350   -1.0583 H       1  LIG1        0.0318
     70 H           7.1283   -0.9666   -0.2057 H       1  LIG1        0.0233
     71 H           6.8495    0.6920    0.3537 H       1  LIG1        0.0233
     72 H           8.3660   -0.1264    0.7338 H       1  LIG1        0.0233
     73 H           9.0242   -1.2492   -2.2508 H       1  LIG1        0.0233
     74 H          10.0279   -0.5934   -0.9455 H       1  LIG1        0.0233
     75 H          10.0062    0.2064   -2.5190 H       1  LIG1        0.0233
@<TRIPOS>BOND
     1     1     2    1
     2     2     3    1
     3     3     4    1
     4     4     5    2
     5     4     6    1
     6     6     7    2
     7     8    10    1
     8    11    13    1
     9    13    14    1
    10    14    15    1
    11    15    16   am
    12    11    16    1
    13    16    17    2
    14     8    18    1
    15    18    19   am
    16    19    20    2
    17    21    23    1
    18    23    24    1
    19    24    25    1
    20    25    26    1
    21    21    26    1
    22    26    27   am
    23    27    28    2
    24    27    29    1
    25    29    30    1
    26    29    31    1
    27    31    32   am
    28    32    33    2
    29    32    34    1
    30    34    35   ar
    31    35    36   ar
    32    36    37    1
    33    36    38   ar
    34    38    39   ar
    35    34    39   ar
    36    29    40    1
    37    40    41    1
    38    40    42    1
    39     8     9    1
    40     8     7    1
    41    11    12    1
    42    11    10    1
    43    21    22    1
    44    21    19    1
    45     1    43    1
    46     1    44    1
    47     1    45    1
    48     2    46    1
    49     2    47    1
    50     6    48    1
    51     7    49    1
    52    10    50    1
    53    10    51    1
    54    13    52    1
    55    13    53    1
    56    14    54    1
    57    14    55    1
    58    15    56    1
    59    18    57    1
    60    23    58    1
    61    23    59    1
    62    24    60    1
    63    24    61    1
    64    25    62    1
    65    25    63    1
    66    31    64    1
    67    35    65    1
    68    37    66    1
    69    37    67    1
    70    37    68    1
    71    40    69    1
    72    41    70    1
    73    41    71    1
    74    41    72    1
    75    42    73    1
    76    42    74    1
    77    42    75    1
@<TRIPOS>MOLECULE
*****
 85 88 0 0 0
SMALL
GASTEIGER

@<TRIPOS>ATOM
      1 C           1.1641  -10.9169   -5.5465 C.3     1  LIG1       -0.0306
      2 C           2.0611  -10.4999   -6.6975 C.3     1  LIG1        0.0900
      3 O           3.1113   -9.6963   -6.1503 O.3     1  LIG1       -0.4618
      4 C           2.7800   -8.3883   -5.9480 C.2     1  LIG1        0.3317
      5 O           1.8476   -7.7625   -6.4621 O.2     1  LIG1       -0.2456
      6 C           3.6679   -7.9129   -4.8709 C.2     1  LIG1        0.0203
      7 C           3.7026   -6.6213   -4.5007 C.2     1  LIG1       -0.0572
      8 C           4.4672   -6.0302   -3.3232 C.3     1  LIG1        0.0427
      9 H           4.8210   -5.0328   -3.6150 H       1  LIG1        0.0543
     10 C           5.7085   -6.9077   -2.9557 C.3     1  LIG1       -0.0197
     11 C           6.6630   -6.3469   -1.8807 C.3     1  LIG1        0.0389
     12 H           7.0259   -5.3510   -2.1472 H       1  LIG1        0.0395
     13 C           7.8477   -7.2995   -1.6090 C.3     1  LIG1       -0.0262
     14 C           7.3275   -8.2897   -0.5770 C.3     1  LIG1        0.0123
     15 N           6.2770   -7.5713    0.0796 N.am    1  LIG1       -0.3151
     16 C           6.0354   -6.3639   -0.5165 C.2     1  LIG1        0.2162
     17 O           5.3157   -5.4761   -0.0371 O.2     1  LIG1       -0.2755
     18 N           3.5158   -5.8794   -2.2092 N.am    1  LIG1       -0.3075
     19 C           2.4064   -5.0293   -2.2522 C.2     1  LIG1        0.2346
     20 O           2.0129   -4.5016   -3.2902 O.2     1  LIG1       -0.2737
     21 C           1.6477   -4.8671   -0.8839 C.3     1  LIG1        0.1090
     22 H           2.4186   -4.7901   -0.1105 H       1  LIG1        0.0603
     23 C           0.6494   -6.0444   -0.6380 C.3     1  LIG1        0.0127
     24 H           1.0268   -6.9901   -1.0477 H       1  LIG1        0.0372
     25 C           0.2266   -6.3010    0.8216 C.ar    1  LIG1       -0.0420
     26 C          -0.7016   -7.3201    1.1200 C.ar    1  LIG1       -0.0582
     27 C          -1.1710   -7.5176    2.4270 C.ar    1  LIG1       -0.0615
     28 C          -0.6991   -6.7241    3.4680 C.ar    1  LIG1       -0.0617
     29 C           0.2435   -5.7382    3.2019 C.ar    1  LIG1       -0.0615
     30 C           0.6946   -5.5257    1.8945 C.ar    1  LIG1       -0.0582
     31 C          -0.5671   -5.5504   -1.4522 C.3     1  LIG1       -0.0281
     32 C          -0.6089   -4.0546   -1.1667 C.3     1  LIG1        0.0161
     33 N           0.7559   -3.6764   -0.8569 N.am    1  LIG1       -0.2878
     34 C           1.1546   -2.4269   -0.4065 C.2     1  LIG1        0.2368
     35 O           2.3349   -2.2421   -0.1010 O.2     1  LIG1       -0.2735
     36 C           0.0292   -1.3450   -0.1091 C.3     1  LIG1        0.1022
     37 H          -0.8187   -1.5505   -0.7682 H       1  LIG1        0.0597
     38 N          -0.4224   -1.5012    1.2851 N.am    1  LIG1       -0.2984
     39 C          -1.7208   -1.7984    1.6346 C.2     1  LIG1        0.2663
     40 O          -2.6067   -1.9732    0.8113 O.2     1  LIG1       -0.2684
     41 C          -1.9847   -1.9270    3.0847 C.ar    1  LIG1        0.1678
     42 C          -2.9975   -2.7301    3.6741 C.ar    1  LIG1        0.0125
     43 C          -2.8263   -2.5661    5.0301 C.ar    1  LIG1        0.1350
     44 C          -3.4752   -3.1523    6.2192 C.3     1  LIG1       -0.0037
     45 O          -1.8074   -1.6900    5.2421 O.2     1  LIG1       -0.3592
     46 N          -1.2620   -1.3043    4.0225 N.ar    1  LIG1       -0.0734
     47 C           0.4080    0.1483   -0.3411 C.3     1  LIG1       -0.0197
     48 C           1.5872    0.6515    0.4994 C.3     1  LIG1       -0.0605
     49 C           0.6127    0.4995   -1.8174 C.3     1  LIG1       -0.0605
     50 H           0.3717  -11.5904   -5.8777 H       1  LIG1        0.0262
     51 H           0.7076  -10.0398   -5.0743 H       1  LIG1        0.0262
     52 H           1.7560  -11.4124   -4.7684 H       1  LIG1        0.0262
     53 H           1.5072   -9.9798   -7.4869 H       1  LIG1        0.0695
     54 H           2.5272  -11.3845   -7.1489 H       1  LIG1        0.0695
     55 H           4.1748   -8.6861   -4.3129 H       1  LIG1        0.0686
     56 H           3.1302   -5.8959   -5.0842 H       1  LIG1        0.0593
     57 H           6.3050   -7.0544   -3.8692 H       1  LIG1        0.0293
     58 H           5.3693   -7.9031   -2.6430 H       1  LIG1        0.0293
     59 H           8.6666   -6.7222   -1.1588 H       1  LIG1        0.0288
     60 H           8.2453   -7.7924   -2.5012 H       1  LIG1        0.0288
     61 H           8.0853   -8.5502    0.1670 H       1  LIG1        0.0462
     62 H           6.9215   -9.2037   -1.0218 H       1  LIG1        0.0462
     63 H           5.9410   -7.7629    1.0169 H       1  LIG1        0.1487
     64 H           3.9227   -5.9228   -1.2798 H       1  LIG1        0.1493
     65 H          -1.0913   -7.9629    0.3325 H       1  LIG1        0.0620
     66 H          -1.9116   -8.2872    2.6334 H       1  LIG1        0.0618
     67 H          -1.0613   -6.8708    4.4824 H       1  LIG1        0.0618
     68 H           0.6276   -5.1195    4.0094 H       1  LIG1        0.0618
     69 H           1.4068   -4.7193    1.7458 H       1  LIG1        0.0620
     70 H          -1.5204   -6.0278   -1.2053 H       1  LIG1        0.0287
     71 H          -0.3897   -5.7156   -2.5220 H       1  LIG1        0.0287
     72 H          -1.2348   -3.8470   -0.2973 H       1  LIG1        0.0465
     73 H          -0.9642   -3.4758   -2.0234 H       1  LIG1        0.0465
     74 H           0.2498   -1.3863    2.0364 H       1  LIG1        0.1498
     75 H          -3.7112   -3.3661    3.1785 H       1  LIG1        0.0676
     76 H          -4.5139   -3.4238    6.0034 H       1  LIG1        0.0309
     77 H          -3.4773   -2.4565    7.0637 H       1  LIG1        0.0309
     78 H          -2.9484   -4.0620    6.5266 H       1  LIG1        0.0309
     79 H          -0.4604    0.7486   -0.0246 H       1  LIG1        0.0318
     80 H           2.2947   -0.1333    0.7619 H       1  LIG1        0.0233
     81 H           1.2249    1.0813    1.4393 H       1  LIG1        0.0233
     82 H           2.1507    1.4344   -0.0196 H       1  LIG1        0.0233
     83 H           1.3868   -0.1172   -2.2794 H       1  LIG1        0.0233
     84 H           0.9095    1.5514   -1.9233 H       1  LIG1        0.0233
     85 H          -0.3185    0.3813   -2.3827 H       1  LIG1        0.0233
@<TRIPOS>BOND
     1     1     2    1
     2     2     3    1
     3     3     4    1
     4     4     5    2
     5     4     6    1
     6     6     7    2
     7     8    10    1
     8    11    13    1
     9    13    14    1
    10    14    15    1
    11    15    16   am
    12    11    16    1
    13    16    17    2
    14     8    18    1
    15    18    19   am
    16    19    20    2
    17    21    23    1
    18    23    24    1
    19    23    25    1
    20    25    26   ar
    21    26    27   ar
    22    27    28   ar
    23    28    29   ar
    24    29    30   ar
    25    25    30   ar
    26    23    31    1
    27    31    32    1
    28    32    33    1
    29    21    33    1
    30    33    34   am
    31    34    35    2
    32    34    36    1
    33    36    37    1
    34    36    38    1
    35    38    39   am
    36    39    40    2
    37    39    41    1
    38    41    42   ar
    39    42    43   ar
    40    43    44    1
    41    43    45   ar
    42    45    46   ar
    43    41    46   ar
    44    36    47    1
    45    47    48    1
    46    47    49    1
    47    11    12    1
    48    11    10    1
    49    21    22    1
    50    21    19    1
    51     8     9    1
    52     8     7    1
    53     1    50    1
    54     1    51    1
    55     1    52    1
    56     2    53    1
    57     2    54    1
    58     6    55    1
    59     7    56    1
    60    10    57    1
    61    10    58    1
    62    13    59    1
    63    13    60    1
    64    14    61    1
    65    14    62    1
    66    15    63    1
    67    18    64    1
    68    26    65    1
    69    27    66    1
    70    28    67    1
    71    29    68    1
    72    30    69    1
    73    31    70    1
    74    31    71    1
    75    32    72    1
    76    32    73    1
    77    38    74    1
    78    42    75    1
    79    44    76    1
    80    44    77    1
    81    44    78    1
    82    47    79    1
    83    48    80    1
    84    48    81    1
    85    48    82    1
    86    49    83    1
    87    49    84    1
    88    49    85    1
@<TRIPOS>MOLECULE
*****
 85 88 0 0 0
SMALL
GASTEIGER

@<TRIPOS>ATOM
      1 C           7.2831    2.2247   -1.2108 C.3     1  LIG1       -0.0306
      2 C           7.5865    3.6739   -1.5326 C.3     1  LIG1        0.0900
      3 O           7.2607    3.9316   -2.9036 O.3     1  LIG1       -0.4618
      4 C           8.1947    3.5018   -3.8065 C.2     1  LIG1        0.3317
      5 O           9.2912    3.0637   -3.5884 O.2     1  LIG1       -0.2456
      6 C           7.5650    3.6414   -5.1373 C.2     1  LIG1        0.0203
      7 C           8.3326    3.6863   -6.2483 C.2     1  LIG1       -0.0572
      8 C           7.7476    3.7433   -7.6343 C.3     1  LIG1        0.0427
      9 H           6.6539    3.7310   -7.5890 H       1  LIG1        0.0543
     10 C           8.2277    2.5737   -8.5232 C.3     1  LIG1       -0.0197
     11 C           7.8472    1.1738   -8.0066 C.3     1  LIG1        0.0389
     12 H           8.2159    0.9914   -6.9919 H       1  LIG1        0.0395
     13 C           8.3373    0.0486   -8.9394 C.3     1  LIG1       -0.0262
     14 C           7.2332   -0.0875   -9.9754 C.3     1  LIG1        0.0123
     15 N           6.0604    0.2911   -9.2510 N.am    1  LIG1       -0.3151
     16 C           6.3495    0.9504   -8.0685 C.2     1  LIG1        0.2162
     17 O           5.5388    1.3102   -7.2500 O.2     1  LIG1       -0.2755
     18 N           8.1765    5.0258   -8.1781 N.am    1  LIG1       -0.3075
     19 C           7.2942    6.0119   -8.5782 C.2     1  LIG1        0.2340
     20 O           6.0733    5.8857   -8.5469 O.2     1  LIG1       -0.2738
     21 C           7.9928    7.3344   -8.9750 C.3     1  LIG1        0.1028
     22 H           9.0170    7.1253   -9.2879 H       1  LIG1        0.0597
     23 C           8.0161    8.2919   -7.7836 C.3     1  LIG1       -0.0175
     24 C           6.6497    9.0005   -7.8460 C.3     1  LIG1        0.0021
     25 H           5.8921    8.3409   -7.3990 H       1  LIG1        0.0365
     26 C           6.5688   10.3363   -7.1226 C.ar    1  LIG1       -0.0427
     27 C           5.6297   11.3038   -7.5233 C.ar    1  LIG1       -0.0583
     28 C           5.5583   12.5501   -6.8962 C.ar    1  LIG1       -0.0615
     29 C           6.4075   12.8456   -5.8360 C.ar    1  LIG1       -0.0617
     30 C           7.3195   11.8898   -5.3975 C.ar    1  LIG1       -0.0615
     31 C           7.3915   10.6414   -6.0262 C.ar    1  LIG1       -0.0583
     32 C           6.4197    9.0940   -9.3745 C.3     1  LIG1        0.0224
     33 N           7.2972    8.0976  -10.0014 N.am    1  LIG1       -0.2878
     34 C           7.7240    8.2532  -11.3169 C.2     1  LIG1        0.2368
     35 O           7.3036    9.1989  -11.9908 O.2     1  LIG1       -0.2735
     36 C           8.5931    7.1156  -11.9761 C.3     1  LIG1        0.1022
     37 H           8.9919    6.4895  -11.1770 H       1  LIG1        0.0597
     38 N           7.7116    6.2215  -12.7493 N.am    1  LIG1       -0.2984
     39 C           8.0048    4.8702  -12.8842 C.2     1  LIG1        0.2663
     40 O           9.0277    4.3884  -12.3734 O.2     1  LIG1       -0.2684
     41 C           7.0620    4.0380  -13.6478 C.ar    1  LIG1        0.1678
     42 C           5.7999    4.3593  -14.2248 C.ar    1  LIG1        0.0125
     43 C           5.3498    3.1776  -14.7678 C.ar    1  LIG1        0.1350
     44 C           4.1221    2.7442  -15.4593 C.3     1  LIG1       -0.0037
     45 O           6.2883    2.2175  -14.5792 O.2     1  LIG1       -0.3592
     46 N           7.3526    2.7446  -13.8849 N.ar    1  LIG1       -0.0734
     47 C           9.8569    7.6532  -12.7511 C.3     1  LIG1       -0.0197
     48 C          10.7125    6.5617  -13.4244 C.3     1  LIG1       -0.0605
     49 C           9.6344    8.7493  -13.7983 C.3     1  LIG1       -0.0605
     50 H           7.4257    2.0163   -0.1480 H       1  LIG1        0.0262
     51 H           7.9305    1.5555   -1.7867 H       1  LIG1        0.0262
     52 H           6.2526    1.9805   -1.4904 H       1  LIG1        0.0262
     53 H           8.6275    3.9384   -1.3114 H       1  LIG1        0.0695
     54 H           6.9497    4.3308   -0.9242 H       1  LIG1        0.0695
     55 H           6.4901    3.6772   -5.1906 H       1  LIG1        0.0686
     56 H           9.4183    3.6608   -6.1562 H       1  LIG1        0.0593
     57 H           9.3201    2.6198   -8.6309 H       1  LIG1        0.0293
     58 H           7.8191    2.7243   -9.5314 H       1  LIG1        0.0293
     59 H           8.4017   -0.8875   -8.3662 H       1  LIG1        0.0288
     60 H           9.3193    0.2309   -9.3829 H       1  LIG1        0.0288
     61 H           7.1242   -1.1113  -10.3423 H       1  LIG1        0.0462
     62 H           7.3651    0.5952  -10.8199 H       1  LIG1        0.0462
     63 H           5.1062    0.0839   -9.5145 H       1  LIG1        0.1487
     64 H           9.1657    5.2348   -8.1526 H       1  LIG1        0.1493
     65 H           8.8235    9.0212   -7.9337 H       1  LIG1        0.0294
     66 H           8.1861    7.7831   -6.8298 H       1  LIG1        0.0294
     67 H           4.9457   11.1093   -8.3466 H       1  LIG1        0.0620
     68 H           4.8426   13.2907   -7.2440 H       1  LIG1        0.0618
     69 H           6.3559   13.8169   -5.3514 H       1  LIG1        0.0618
     70 H           7.9818   12.1187   -4.5662 H       1  LIG1        0.0618
     71 H           8.1116    9.9210   -5.6462 H       1  LIG1        0.0620
     72 H           6.6593   10.0872   -9.7689 H       1  LIG1        0.0471
     73 H           5.3758    8.8666   -9.6251 H       1  LIG1        0.0471
     74 H           6.7493    6.5155  -12.8815 H       1  LIG1        0.1498
     75 H           5.2778    5.3025  -14.2228 H       1  LIG1        0.0676
     76 H           3.4147    3.5705  -15.5727 H       1  LIG1        0.0309
     77 H           3.6280    1.9497  -14.8895 H       1  LIG1        0.0309
     78 H           4.3565    2.3524  -16.4541 H       1  LIG1        0.0309
     79 H          10.4955    8.1145  -11.9840 H       1  LIG1        0.0318
     80 H          11.3148    6.0246  -12.6852 H       1  LIG1        0.0233
     81 H          11.4093    6.9877  -14.1573 H       1  LIG1        0.0233
     82 H          10.1133    5.8448  -13.9893 H       1  LIG1        0.0233
     83 H           9.1639    9.6408  -13.3824 H       1  LIG1        0.0233
     84 H           9.0535    8.3886  -14.6509 H       1  LIG1        0.0233
     85 H          10.6071    9.0898  -14.1826 H       1  LIG1        0.0233
@<TRIPOS>BOND
     1     1     2    1
     2     2     3    1
     3     3     4    1
     4     4     5    2
     5     4     6    1
     6     6     7    2
     7     8    10    1
     8    11    13    1
     9    13    14    1
    10    14    15    1
    11    15    16   am
    12    11    16    1
    13    16    17    2
    14     8    18    1
    15    18    19   am
    16    19    20    2
    17    21    23    1
    18    23    24    1
    19    26    27   ar
    20    27    28   ar
    21    28    29   ar
    22    29    30   ar
    23    30    31   ar
    24    26    31   ar
    25    24    32    1
    26    32    33    1
    27    21    33    1
    28    33    34   am
    29    34    35    2
    30    34    36    1
    31    36    37    1
    32    36    38    1
    33    38    39   am
    34    39    40    2
    35    39    41    1
    36    41    42   ar
    37    42    43   ar
    38    43    44    1
    39    43    45   ar
    40    45    46   ar
    41    41    46   ar
    42    36    47    1
    43    47    48    1
    44    47    49    1
    45    21    22    1
    46    21    19    1
    47    11    12    1
    48    11    10    1
    49     8     9    1
    50     8     7    1
    51    24    26    1
    52    24    25    1
    53     1    50    1
    54     1    51    1
    55     1    52    1
    56     2    53    1
    57     2    54    1
    58     6    55    1
    59     7    56    1
    60    10    57    1
    61    10    58    1
    62    13    59    1
    63    13    60    1
    64    14    61    1
    65    14    62    1
    66    15    63    1
    67    18    64    1
    68    23    65    1
    69    23    66    1
    70    27    67    1
    71    28    68    1
    72    29    69    1
    73    30    70    1
    74    31    71    1
    75    32    72    1
    76    32    73    1
    77    38    74    1
    78    42    75    1
    79    44    76    1
    80    44    77    1
    81    44    78    1
    82    47    79    1
    83    48    80    1
    84    48    81    1
    85    48    82    1
    86    49    83    1
    87    49    84    1
    88    49    85    1
@<TRIPOS>MOLECULE
*****
 85 88 0 0 0
SMALL
GASTEIGER

@<TRIPOS>ATOM
      1 C           0.0385    4.7706  -13.4428 C.3     1  LIG1       -0.0306
      2 C           1.4921    4.4691  -13.0674 C.3     1  LIG1        0.0900
      3 O           1.8641    3.1035  -13.3146 O.3     1  LIG1       -0.4618
      4 C           1.3990    2.1674  -12.4541 C.2     1  LIG1        0.3317
      5 O           0.4965    2.2973  -11.6408 O.2     1  LIG1       -0.2456
      6 C           2.2856    0.9690  -12.6305 C.2     1  LIG1        0.0203
      7 C           1.9698   -0.2672  -12.2191 C.2     1  LIG1       -0.0572
      8 C           2.8921   -1.4582  -12.3783 C.3     1  LIG1        0.0427
      9 H           3.9329   -1.1175  -12.3052 H       1  LIG1        0.0543
     10 C           2.6421   -2.0944  -13.7497 C.3     1  LIG1       -0.0197
     11 C           3.5879   -3.2203  -14.1849 C.3     1  LIG1        0.0389
     12 H           3.4800   -4.1024  -13.5446 H       1  LIG1        0.0395
     13 C           5.0711   -2.8325  -14.3085 C.3     1  LIG1       -0.0262
     14 C           5.5633   -3.5214  -15.5725 C.3     1  LIG1        0.0123
     15 N           4.3821   -3.7092  -16.3510 N.am    1  LIG1       -0.3151
     16 C           3.2310   -3.6287  -15.6037 C.2     1  LIG1        0.2162
     17 O           2.1141   -3.8655  -16.0310 O.2     1  LIG1       -0.2755
     18 N           2.6134   -2.3878  -11.2835 N.am    1  LIG1       -0.3075
     19 C           3.5342   -2.6808  -10.3026 C.2     1  LIG1        0.2340
     20 O           4.7108   -2.3218  -10.3810 O.2     1  LIG1       -0.2738
     21 C           3.0949   -3.6454   -9.1729 C.3     1  LIG1        0.1029
     22 H           3.7444   -3.4629   -8.3166 H       1  LIG1        0.0597
     23 C           3.2938   -5.1073   -9.6510 C.3     1  LIG1       -0.0238
     24 C           1.8861   -5.5348  -10.0352 C.3     1  LIG1       -0.0280
     25 C           1.0329   -4.9003   -8.9139 C.3     1  LIG1        0.0521
     26 H           0.0223   -4.7364   -9.3087 H       1  LIG1        0.0551
     27 C           0.9383   -5.7020   -7.5860 C.ar    1  LIG1       -0.0270
     28 C          -0.3057   -6.2175   -7.1717 C.ar    1  LIG1       -0.0568
     29 C          -0.4805   -6.8164   -5.9077 C.ar    1  LIG1       -0.0614
     30 C           0.5784   -6.9069   -5.0115 C.ar    1  LIG1       -0.0617
     31 C           1.8223   -6.4294   -5.3969 C.ar    1  LIG1       -0.0614
     32 C           2.0014   -5.8502   -6.6683 C.ar    1  LIG1       -0.0568
     33 N           1.6827   -3.5770   -8.7275 N.am    1  LIG1       -0.2813
     34 C           1.0051   -2.5419   -8.0604 C.2     1  LIG1        0.2373
     35 O          -0.1871   -2.6865   -7.7613 O.2     1  LIG1       -0.2735
     36 C           1.7722   -1.2254   -7.6093 C.3     1  LIG1        0.1022
     37 H           2.4354   -0.9519   -8.4372 H       1  LIG1        0.0597
     38 N           0.9084    0.0175   -7.3572 N.am    1  LIG1       -0.2984
     39 C           0.2024    0.7718   -8.2981 C.2     1  LIG1        0.2663
     40 O           0.1104    0.4099   -9.4750 O.2     1  LIG1       -0.2684
     41 C          -0.5004    2.0340   -7.8024 C.ar    1  LIG1        0.1678
     42 C          -1.6518    2.7238   -8.3359 C.ar    1  LIG1        0.0125
     43 C          -1.9667    3.7206   -7.4277 C.ar    1  LIG1        0.1350
     44 C          -3.0773    4.6965   -7.2472 C.3     1  LIG1       -0.0037
     45 O          -0.9959    3.7154   -6.4650 O.2     1  LIG1       -0.3592
     46 N          -0.0944    2.6791   -6.6873 N.ar    1  LIG1       -0.0734
     47 C           2.6735   -1.5925   -6.3527 C.3     1  LIG1       -0.0197
     48 C           3.4681   -0.4070   -5.7986 C.3     1  LIG1       -0.0605
     49 C           1.9825   -2.3050   -5.1741 C.3     1  LIG1       -0.0605
     50 H          -0.1278    5.8597  -13.3801 H       1  LIG1        0.0262
     51 H          -0.6688    4.2949  -12.7639 H       1  LIG1        0.0262
     52 H          -0.1935    4.4410  -14.4555 H       1  LIG1        0.0262
     53 H           1.6633    4.6813  -12.0072 H       1  LIG1        0.0695
     54 H           2.1480    5.0838  -13.6519 H       1  LIG1        0.0695
     55 H           3.2392    1.1743  -13.1229 H       1  LIG1        0.0686
     56 H           1.0086   -0.4183  -11.7308 H       1  LIG1        0.0593
     57 H           2.6779   -1.3083  -14.5160 H       1  LIG1        0.0293
     58 H           1.6085   -2.4808  -13.7780 H       1  LIG1        0.0293
     59 H           5.6524   -3.1496  -13.4361 H       1  LIG1        0.0288
     60 H           5.1918   -1.7482  -14.4084 H       1  LIG1        0.0288
     61 H           6.0014   -4.5041  -15.3723 H       1  LIG1        0.0462
     62 H           6.2779   -2.9142  -16.1358 H       1  LIG1        0.0462
     63 H           4.3487   -4.0233  -17.3125 H       1  LIG1        0.1487
     64 H           1.6616   -2.7244  -11.1732 H       1  LIG1        0.1493
     65 H           3.6370   -5.7491   -8.8335 H       1  LIG1        0.0289
     66 H           4.0246   -5.2292  -10.4573 H       1  LIG1        0.0289
     67 H           1.7650   -6.6142  -10.1685 H       1  LIG1        0.0287
     68 H           1.6512   -5.0686  -11.0056 H       1  LIG1        0.0287
     69 H          -1.1871   -6.0942   -7.7973 H       1  LIG1        0.0621
     70 H          -1.4649   -7.1605   -5.5979 H       1  LIG1        0.0618
     71 H           0.4262   -7.3011   -4.0080 H       1  LIG1        0.0618
     72 H           2.6447   -6.4510   -4.6840 H       1  LIG1        0.0618
     73 H           2.9883   -5.4491   -6.8671 H       1  LIG1        0.0621
     74 H           0.9527    0.4440   -6.4472 H       1  LIG1        0.1498
     75 H          -2.2239    2.4741   -9.2185 H       1  LIG1        0.0676
     76 H          -2.7485    5.6041   -6.7245 H       1  LIG1        0.0309
     77 H          -3.8869    4.2625   -6.6439 H       1  LIG1        0.0309
     78 H          -3.5226    5.0165   -8.1984 H       1  LIG1        0.0309
     79 H           3.4271   -2.3097   -6.6932 H       1  LIG1        0.0318
     80 H           2.8198    0.3192   -5.2996 H       1  LIG1        0.0233
     81 H           4.0274    0.0946   -6.5922 H       1  LIG1        0.0233
     82 H           4.1958   -0.7516   -5.0517 H       1  LIG1        0.0233
     83 H           1.1874   -1.7044   -4.7260 H       1  LIG1        0.0233
     84 H           2.7161   -2.5187   -4.3818 H       1  LIG1        0.0233
     85 H           1.5700   -3.2746   -5.4628 H       1  LIG1        0.0233
@<TRIPOS>BOND
     1     1     2    1
     2     2     3    1
     3     3     4    1
     4     4     5    2
     5     4     6    1
     6     6     7    2
     7     8    10    1
     8    11    13    1
     9    13    14    1
    10    14    15    1
    11    15    16   am
    12    11    16    1
    13    16    17    2
    14     8    18    1
    15    18    19   am
    16    19    20    2
    17    21    23    1
    18    23    24    1
    19    24    25    1
    20    27    28   ar
    21    28    29   ar
    22    29    30   ar
    23    30    31   ar
    24    31    32   ar
    25    27    32   ar
    26    25    33    1
    27    21    33    1
    28    33    34   am
    29    34    35    2
    30    34    36    1
    31    36    37    1
    32    36    38    1
    33    38    39   am
    34    39    40    2
    35    39    41    1
    36    41    42   ar
    37    42    43   ar
    38    43    44    1
    39    43    45   ar
    40    45    46   ar
    41    41    46   ar
    42    36    47    1
    43    47    48    1
    44    47    49    1
    45    11    12    1
    46    11    10    1
    47    25    27    1
    48    25    26    1
    49     8     9    1
    50     8     7    1
    51    21    22    1
    52    21    19    1
    53     1    50    1
    54     1    51    1
    55     1    52    1
    56     2    53    1
    57     2    54    1
    58     6    55    1
    59     7    56    1
    60    10    57    1
    61    10    58    1
    62    13    59    1
    63    13    60    1
    64    14    61    1
    65    14    62    1
    66    15    63    1
    67    18    64    1
    68    23    65    1
    69    23    66    1
    70    24    67    1
    71    24    68    1
    72    28    69    1
    73    29    70    1
    74    30    71    1
    75    31    72    1
    76    32    73    1
    77    38    74    1
    78    42    75    1
    79    44    76    1
    80    44    77    1
    81    44    78    1
    82    47    79    1
    83    48    80    1
    84    48    81    1
    85    48    82    1
    86    49    83    1
    87    49    84    1
    88    49    85    1
@<TRIPOS>MOLECULE
*****
 91 94 0 0 0
SMALL
GASTEIGER

@<TRIPOS>ATOM
      1 C           8.4161    2.5396  -10.1990 C.3     1  LIG1       -0.0306
      2 C           7.8412    1.4652   -9.2949 C.3     1  LIG1        0.0900
      3 O           6.7462    0.7891   -9.9212 O.3     1  LIG1       -0.4618
      4 C           5.5457    1.4077   -9.8312 C.2     1  LIG1        0.3317
      5 O           5.3249    2.5158   -9.3668 O.2     1  LIG1       -0.2456
      6 C           4.4926    0.5896  -10.4614 C.2     1  LIG1        0.0203
      7 C           4.5594   -0.7497  -10.5670 C.2     1  LIG1       -0.0572
      8 C           3.5591   -1.6493  -11.2513 C.3     1  LIG1        0.0427
      9 H           4.1093   -2.5096  -11.6493 H       1  LIG1        0.0543
     10 C           2.8366   -0.9591  -12.4263 C.3     1  LIG1       -0.0197
     11 C           1.8633   -1.8363  -13.2260 C.3     1  LIG1        0.0389
     12 H           2.3464   -2.7480  -13.5924 H       1  LIG1        0.0395
     13 C           1.2239   -1.0476  -14.3800 C.3     1  LIG1       -0.0262
     14 C           0.0690   -0.2987  -13.7233 C.3     1  LIG1        0.0123
     15 N          -0.3134   -1.1573  -12.6531 N.am    1  LIG1       -0.3151
     16 C           0.5985   -2.1746  -12.4738 C.2     1  LIG1        0.2162
     17 O           0.3744   -3.1831  -11.8562 O.2     1  LIG1       -0.2755
     18 N           2.6515   -2.0813  -10.2213 N.am    1  LIG1       -0.3075
     19 C           2.4919   -3.4061   -9.8657 C.2     1  LIG1        0.2340
     20 O           3.1882   -4.2998  -10.3469 O.2     1  LIG1       -0.2738
     21 C           1.5166   -3.6541   -8.6841 C.3     1  LIG1        0.1025
     22 H           2.1104   -3.5607   -7.7668 H       1  LIG1        0.0597
     23 C           0.8672   -5.0401   -8.7541 C.3     1  LIG1       -0.0212
     24 C          -0.4302   -4.7898   -9.5305 C.3     1  LIG1       -0.0202
     25 H          -0.1683   -4.7545  -10.5862 H       1  LIG1        0.0319
     26 C          -1.4996   -5.8843   -9.3953 C.3     1  LIG1       -0.0367
     27 C          -0.9528   -7.2386   -9.8872 C.3     1  LIG1       -0.0499
     28 C          -2.0088   -8.3368   -9.8359 C.3     1  LIG1       -0.0528
     29 C          -3.2589   -7.9473  -10.6140 C.3     1  LIG1       -0.0530
     30 C          -3.8241   -6.6218  -10.1182 C.3     1  LIG1       -0.0528
     31 C          -2.7789   -5.5100  -10.1708 C.3     1  LIG1       -0.0499
     32 C          -0.8567   -3.4023   -9.0281 C.3     1  LIG1        0.0187
     33 N           0.3732   -2.7367   -8.6133 N.am    1  LIG1       -0.2881
     34 C           0.5007   -1.4780   -8.0706 C.2     1  LIG1        0.2368
     35 O           1.6193   -1.0375   -7.7841 O.2     1  LIG1       -0.2735
     36 C          -0.7738   -0.6951   -7.6994 C.3     1  LIG1        0.1022
     37 H          -1.6124   -0.9953   -8.3341 H       1  LIG1        0.0597
     38 N          -1.0232   -1.0930   -6.3154 N.am    1  LIG1       -0.2984
     39 C          -2.2746   -1.3121   -5.7931 C.2     1  LIG1        0.2663
     40 O          -3.3071   -1.1906   -6.4442 O.2     1  LIG1       -0.2684
     41 C          -2.2609   -1.7618   -4.4016 C.ar    1  LIG1        0.1678
     42 C          -3.2358   -2.5528   -3.7446 C.ar    1  LIG1        0.0125
     43 C          -2.7245   -2.7578   -2.4878 C.ar    1  LIG1        0.1350
     44 C          -3.1716   -3.5254   -1.3116 C.3     1  LIG1       -0.0037
     45 O          -1.5392   -2.1024   -2.3757 O.2     1  LIG1       -0.3592
     46 N          -1.2313   -1.4928   -3.5788 N.ar    1  LIG1       -0.0734
     47 C          -0.5636    0.8372   -7.7946 C.3     1  LIG1       -0.0197
     48 C          -0.1770    1.2783   -9.2116 C.3     1  LIG1       -0.0605
     49 C          -1.8192    1.6063   -7.3661 C.3     1  LIG1       -0.0605
     50 H           9.3057    2.9831   -9.7429 H       1  LIG1        0.0262
     51 H           7.6876    3.3361  -10.3796 H       1  LIG1        0.0262
     52 H           8.6864    2.1267  -11.1763 H       1  LIG1        0.0262
     53 H           7.5353    1.8769   -8.3270 H       1  LIG1        0.0695
     54 H           8.6054    0.7067   -9.0972 H       1  LIG1        0.0695
     55 H           3.6414    1.1643  -10.8053 H       1  LIG1        0.0686
     56 H           5.4132   -1.2731  -10.1371 H       1  LIG1        0.0593
     57 H           3.6084   -0.6073  -13.1255 H       1  LIG1        0.0293
     58 H           2.3088   -0.0700  -12.0634 H       1  LIG1        0.0293
     59 H           0.8204   -1.7616  -15.1113 H       1  LIG1        0.0288
     60 H           1.9170   -0.3849  -14.9018 H       1  LIG1        0.0288
     61 H          -0.7766   -0.1530  -14.3994 H       1  LIG1        0.0462
     62 H           0.3741    0.6589  -13.2936 H       1  LIG1        0.0462
     63 H          -1.2555   -1.2622  -12.2861 H       1  LIG1        0.1487
     64 H           2.2616   -1.3896   -9.5884 H       1  LIG1        0.1493
     65 H           0.6252   -5.3917   -7.7446 H       1  LIG1        0.0291
     66 H           1.5005   -5.7917   -9.2347 H       1  LIG1        0.0291
     67 H          -1.7595   -5.9829   -8.3342 H       1  LIG1        0.0304
     68 H          -0.0996   -7.5479   -9.2735 H       1  LIG1        0.0268
     69 H          -0.5832   -7.1426  -10.9172 H       1  LIG1        0.0268
     70 H          -2.2735   -8.5357   -8.7903 H       1  LIG1        0.0265
     71 H          -1.5934   -9.2650  -10.2437 H       1  LIG1        0.0265
     72 H          -4.0154   -8.7334  -10.5142 H       1  LIG1        0.0265
     73 H          -3.0174   -7.8674  -11.6812 H       1  LIG1        0.0265
     74 H          -4.1785   -6.7379   -9.0866 H       1  LIG1        0.0265
     75 H          -4.6924   -6.3417  -10.7250 H       1  LIG1        0.0265
     76 H          -3.2201   -4.5958   -9.7574 H       1  LIG1        0.0268
     77 H          -2.5351   -5.2956  -11.2201 H       1  LIG1        0.0268
     78 H          -1.5134   -3.4739   -8.1560 H       1  LIG1        0.0467
     79 H          -1.3565   -2.8081   -9.8005 H       1  LIG1        0.0467
     80 H          -0.2302   -1.2044   -5.6869 H       1  LIG1        0.1498
     81 H          -4.1503   -2.9500   -4.1595 H       1  LIG1        0.0676
     82 H          -3.2627   -4.5870   -1.5632 H       1  LIG1        0.0309
     83 H          -4.1464   -3.1684   -0.9670 H       1  LIG1        0.0309
     84 H          -2.4628   -3.4362   -0.4824 H       1  LIG1        0.0309
     85 H           0.2505    1.1338   -7.1197 H       1  LIG1        0.0318
     86 H          -0.9291    0.9710   -9.9456 H       1  LIG1        0.0233
     87 H           0.7878    0.8605   -9.5139 H       1  LIG1        0.0233
     88 H          -0.0841    2.3694   -9.2617 H       1  LIG1        0.0233
     89 H          -2.6810    1.3318   -7.9838 H       1  LIG1        0.0233
     90 H          -1.6650    2.6864   -7.4602 H       1  LIG1        0.0233
     91 H          -2.0700    1.4119   -6.3192 H       1  LIG1        0.0233
@<TRIPOS>BOND
     1     1     2    1
     2     2     3    1
     3     3     4    1
     4     4     5    2
     5     4     6    1
     6     6     7    2
     7     8    10    1
     8    11    13    1
     9    13    14    1
    10    14    15    1
    11    15    16   am
    12    11    16    1
    13    16    17    2
    14     8    18    1
    15    18    19   am
    16    19    20    2
    17    21    23    1
    18    23    24    1
    19    26    27    1
    20    27    28    1
    21    28    29    1
    22    29    30    1
    23    30    31    1
    24    26    31    1
    25    24    32    1
    26    32    33    1
    27    21    33    1
    28    33    34   am
    29    34    35    2
    30    34    36    1
    31    36    37    1
    32    36    38    1
    33    38    39   am
    34    39    40    2
    35    39    41    1
    36    41    42   ar
    37    42    43   ar
    38    43    44    1
    39    43    45   ar
    40    45    46   ar
    41    41    46   ar
    42    36    47    1
    43    47    48    1
    44    47    49    1
    45    24    26    1
    46    24    25    1
    47    11    12    1
    48    11    10    1
    49    21    22    1
    50    21    19    1
    51     8     9    1
    52     8     7    1
    53     1    50    1
    54     1    51    1
    55     1    52    1
    56     2    53    1
    57     2    54    1
    58     6    55    1
    59     7    56    1
    60    10    57    1
    61    10    58    1
    62    13    59    1
    63    13    60    1
    64    14    61    1
    65    14    62    1
    66    15    63    1
    67    18    64    1
    68    23    65    1
    69    23    66    1
    70    26    67    1
    71    27    68    1
    72    27    69    1
    73    28    70    1
    74    28    71    1
    75    29    72    1
    76    29    73    1
    77    30    74    1
    78    30    75    1
    79    31    76    1
    80    31    77    1
    81    32    78    1
    82    32    79    1
    83    38    80    1
    84    42    81    1
    85    44    82    1
    86    44    83    1
    87    44    84    1
    88    47    85    1
    89    48    86    1
    90    48    87    1
    91    48    88    1
    92    49    89    1
    93    49    90    1
    94    49    91    1
@<TRIPOS>MOLECULE
*****
 88 91 0 0 0
SMALL
GASTEIGER

@<TRIPOS>ATOM
      1 C           0.3412   12.5645    4.1636 C.3     1  LIG1       -0.0306
      2 C           1.0973   13.8000    4.6333 C.3     1  LIG1        0.0900
      3 O           2.2262   13.3737    5.4003 O.3     1  LIG1       -0.4618
      4 C           1.9127   12.8036    6.5893 C.2     1  LIG1        0.3317
      5 O           0.9961   13.0996    7.3441 O.2     1  LIG1       -0.2456
      6 C           2.7301   11.5798    6.6485 C.2     1  LIG1        0.0203
      7 C           2.8564   10.8185    7.7464 C.2     1  LIG1       -0.0572
      8 C           3.5977    9.5067    7.8036 C.3     1  LIG1        0.0427
      9 H           3.1431    8.8869    8.5846 H       1  LIG1        0.0543
     10 C           5.1023    9.6957    8.1167 C.3     1  LIG1       -0.0197
     11 C           5.4272   10.4284    9.4398 C.3     1  LIG1        0.0389
     12 H           4.9773   11.4248    9.4719 H       1  LIG1        0.0395
     13 C           6.9412   10.5487    9.7013 C.3     1  LIG1       -0.0262
     14 C           7.3027    9.2434   10.3853 C.3     1  LIG1        0.0123
     15 N           6.1062    8.8754   11.0684 N.am    1  LIG1       -0.3151
     16 C           5.0295    9.6333   10.6671 C.2     1  LIG1        0.2162
     17 O           3.9420    9.6543   11.2204 O.2     1  LIG1       -0.2755
     18 N           3.3752    8.8195    6.5183 N.am    1  LIG1       -0.3075
     19 C           3.1630    7.4638    6.4119 C.2     1  LIG1        0.2340
     20 O           3.2087    6.7180    7.3880 O.2     1  LIG1       -0.2738
     21 C           2.8639    6.9596    4.9626 C.3     1  LIG1        0.1025
     22 H           3.3522    7.6137    4.2436 H       1  LIG1        0.0597
     23 C           1.4020    6.8363    4.5506 C.3     1  LIG1       -0.0212
     24 C           0.9349    5.5276    5.2141 C.3     1  LIG1       -0.0191
     25 H           0.5814    5.7760    6.2235 H       1  LIG1        0.0320
     26 C          -0.2003    4.8266    4.4478 C.3     1  LIG1       -0.0233
     27 C          -0.7027    3.5808    5.1465 C.ar    1  LIG1       -0.0470
     28 C          -1.7569    3.6402    6.0680 C.ar    1  LIG1       -0.0586
     29 C          -2.1899    2.4833    6.7246 C.ar    1  LIG1       -0.0615
     30 C          -1.5782    1.2576    6.4665 C.ar    1  LIG1       -0.0617
     31 C          -0.5314    1.1860    5.5532 C.ar    1  LIG1       -0.0615
     32 C          -0.0994    2.3389    4.8975 C.ar    1  LIG1       -0.0586
     33 C           2.2351    4.6931    5.3101 C.3     1  LIG1        0.0187
     34 N           3.3021    5.5833    4.8416 N.am    1  LIG1       -0.2881
     35 C           4.5451    5.1610    4.4136 C.2     1  LIG1        0.2368
     36 O           4.8403    3.9653    4.3954 O.2     1  LIG1       -0.2735
     37 C           5.6066    6.2739    4.0973 C.3     1  LIG1        0.1022
     38 H           5.1149    7.2324    3.9686 H       1  LIG1        0.0597
     39 N           6.4644    6.4325    5.2691 N.am    1  LIG1       -0.2984
     40 C           6.9715    7.6702    5.6811 C.2     1  LIG1        0.2663
     41 O           6.7150    8.6995    5.0965 O.2     1  LIG1       -0.2684
     42 C           7.8621    7.5811    6.8607 C.ar    1  LIG1        0.1678
     43 C           8.1611    6.4654    7.6866 C.ar    1  LIG1        0.0125
     44 C           9.1815    6.8914    8.4956 C.ar    1  LIG1        0.1350
     45 C          10.0579    6.2311    9.4746 C.3     1  LIG1       -0.0037
     46 O           9.4081    8.2108    8.2688 O.2     1  LIG1       -0.3592
     47 N           8.5622    8.6575    7.2696 N.ar    1  LIG1       -0.0734
     48 C           6.4061    6.1030    2.7828 C.3     1  LIG1       -0.0197
     49 C           7.2306    4.8259    2.6434 C.3     1  LIG1       -0.0605
     50 C           5.4960    6.2295    1.5543 C.3     1  LIG1       -0.0605
     51 H          -0.4834   12.8304    3.5009 H       1  LIG1        0.0262
     52 H          -0.0654   12.0123    5.0178 H       1  LIG1        0.0262
     53 H           1.0161   11.8732    3.6444 H       1  LIG1        0.0262
     54 H           0.4618   14.4815    5.2076 H       1  LIG1        0.0695
     55 H           1.4836   14.3439    3.7655 H       1  LIG1        0.0695
     56 H           3.1686   11.2941    5.7001 H       1  LIG1        0.0686
     57 H           2.3846   11.1389    8.6750 H       1  LIG1        0.0593
     58 H           5.5704   10.2573    7.2955 H       1  LIG1        0.0293
     59 H           5.5687    8.7050    8.1143 H       1  LIG1        0.0293
     60 H           7.1166   11.3687   10.4115 H       1  LIG1        0.0288
     61 H           7.5384   10.7596    8.8105 H       1  LIG1        0.0288
     62 H           8.1303    9.3408   11.0927 H       1  LIG1        0.0462
     63 H           7.5072    8.4433    9.6883 H       1  LIG1        0.0462
     64 H           6.0534    8.2444   11.8575 H       1  LIG1        0.1487
     65 H           3.6457    9.3039    5.6738 H       1  LIG1        0.1493
     66 H           1.3625    6.7202    3.4549 H       1  LIG1        0.0291
     67 H           0.8013    7.7080    4.8156 H       1  LIG1        0.0291
     68 H          -1.0428    5.5183    4.3067 H       1  LIG1        0.0316
     69 H           0.1272    4.5593    3.4343 H       1  LIG1        0.0316
     70 H          -2.2527    4.5840    6.2830 H       1  LIG1        0.0620
     71 H          -3.0052    2.5371    7.4418 H       1  LIG1        0.0618
     72 H          -1.9158    0.3589    6.9758 H       1  LIG1        0.0618
     73 H          -0.0472    0.2347    5.3494 H       1  LIG1        0.0618
     74 H           0.7234    2.2551    4.1916 H       1  LIG1        0.0620
     75 H           2.2364    3.7632    4.7413 H       1  LIG1        0.0467
     76 H           2.4207    4.4438    6.3626 H       1  LIG1        0.0467
     77 H           6.6822    5.5978    5.7872 H       1  LIG1        0.1498
     78 H           7.7545    5.4656    7.6473 H       1  LIG1        0.0676
     79 H          10.0173    6.7255   10.4493 H       1  LIG1        0.0309
     80 H          11.0886    6.2612    9.1092 H       1  LIG1        0.0309
     81 H           9.7732    5.1826    9.6047 H       1  LIG1        0.0309
     82 H           7.1141    6.9429    2.7332 H       1  LIG1        0.0318
     83 H           6.6425    3.9265    2.8328 H       1  LIG1        0.0233
     84 H           8.0952    4.8337    3.3118 H       1  LIG1        0.0233
     85 H           7.6125    4.7364    1.6185 H       1  LIG1        0.0233
     86 H           4.7978    5.3895    1.4853 H       1  LIG1        0.0233
     87 H           6.1009    6.2359    0.6396 H       1  LIG1        0.0233
     88 H           4.9216    7.1612    1.5688 H       1  LIG1        0.0233
@<TRIPOS>BOND
     1     1     2    1
     2     2     3    1
     3     3     4    1
     4     4     5    2
     5     4     6    1
     6     6     7    2
     7     8    10    1
     8    11    13    1
     9    13    14    1
    10    14    15    1
    11    15    16   am
    12    11    16    1
    13    16    17    2
    14     8    18    1
    15    18    19   am
    16    19    20    2
    17    21    23    1
    18    23    24    1
    19    26    27    1
    20    27    28   ar
    21    28    29   ar
    22    29    30   ar
    23    30    31   ar
    24    31    32   ar
    25    27    32   ar
    26    24    33    1
    27    33    34    1
    28    21    34    1
    29    34    35   am
    30    35    36    2
    31    35    37    1
    32    37    38    1
    33    37    39    1
    34    39    40   am
    35    40    41    2
    36    40    42    1
    37    42    43   ar
    38    43    44   ar
    39    44    45    1
    40    44    46   ar
    41    46    47   ar
    42    42    47   ar
    43    37    48    1
    44    48    49    1
    45    48    50    1
    46     8     9    1
    47     8     7    1
    48    11    12    1
    49    11    10    1
    50    21    22    1
    51    21    19    1
    52    24    26    1
    53    24    25    1
    54     1    51    1
    55     1    52    1
    56     1    53    1
    57     2    54    1
    58     2    55    1
    59     6    56    1
    60     7    57    1
    61    10    58    1
    62    10    59    1
    63    13    60    1
    64    13    61    1
    65    14    62    1
    66    14    63    1
    67    15    64    1
    68    18    65    1
    69    23    66    1
    70    23    67    1
    71    26    68    1
    72    26    69    1
    73    28    70    1
    74    29    71    1
    75    30    72    1
    76    31    73    1
    77    32    74    1
    78    33    75    1
    79    33    76    1
    80    39    77    1
    81    43    78    1
    82    45    79    1
    83    45    80    1
    84    45    81    1
    85    48    82    1
    86    49    83    1
    87    49    84    1
    88    49    85    1
    89    50    86    1
    90    50    87    1
    91    50    88    1
@<TRIPOS>MOLECULE
*****
 86 89 0 0 0
SMALL
GASTEIGER

@<TRIPOS>ATOM
      1 C           8.0653   -1.8295    0.2694 C.3     1  LIG1       -0.0306
      2 C           8.2929   -0.5754   -0.5531 C.3     1  LIG1        0.0900
      3 O           7.7122   -0.7700   -1.8468 O.3     1  LIG1       -0.4618
      4 C           8.5598   -1.3725   -2.7240 C.2     1  LIG1        0.3317
      5 O           9.7530   -1.5068   -2.6115 O.2     1  LIG1       -0.2456
      6 C           7.7243   -1.9964   -3.7747 C.2     1  LIG1        0.0203
      7 C           8.2552   -3.0003   -4.4931 C.2     1  LIG1       -0.0572
      8 C           7.6733   -3.7153   -5.6802 C.3     1  LIG1        0.0427
      9 H           7.6359   -4.7796   -5.4126 H       1  LIG1        0.0543
     10 C           8.5461   -3.5863   -6.9503 C.3     1  LIG1       -0.0197
     11 C           8.6975   -2.1691   -7.5427 C.3     1  LIG1        0.0389
     12 H           7.7213   -1.7236   -7.7566 H       1  LIG1        0.0395
     13 C           9.5579   -2.1731   -8.8232 C.3     1  LIG1       -0.0262
     14 C          10.9856   -2.0172   -8.3226 C.3     1  LIG1        0.0123
     15 N          10.8287   -1.2682   -7.1161 N.am    1  LIG1       -0.3151
     16 C           9.5230   -1.2239   -6.6923 C.2     1  LIG1        0.2162
     17 O           9.1132   -0.5162   -5.7829 O.2     1  LIG1       -0.2755
     18 N           6.3145   -3.2732   -5.9129 N.am    1  LIG1       -0.3075
     19 C           5.2995   -4.1295   -6.3052 C.2     1  LIG1        0.2341
     20 O           5.4806   -5.3241   -6.5211 O.2     1  LIG1       -0.2738
     21 C           3.9095   -3.4406   -6.3699 C.3     1  LIG1        0.1057
     22 H           3.9601   -2.6555   -7.1325 H       1  LIG1        0.0598
     23 C           3.5628   -2.8783   -4.9915 C.3     1  LIG1        0.0129
     24 C           2.9938   -4.1067   -4.2683 C.3     1  LIG1        0.1180
     25 H           3.7695   -4.8467   -4.0296 H       1  LIG1        0.0749
     26 O           2.2413   -3.7531   -3.1056 O.3     1  LIG1       -0.4872
     27 C           2.9580   -3.1772   -2.0852 C.ar    1  LIG1        0.1210
     28 C           2.2854   -2.2177   -1.3202 C.ar    1  LIG1       -0.0199
     29 C           2.9410   -1.5117   -0.3051 C.ar    1  LIG1       -0.0583
     30 C           4.2806   -1.7679   -0.0472 C.ar    1  LIG1       -0.0615
     31 C           4.9317   -2.7647   -0.7745 C.ar    1  LIG1       -0.0583
     32 C           4.2761   -3.4851   -1.7699 C.ar    1  LIG1       -0.0199
     33 C           2.1064   -4.6981   -5.3826 C.3     1  LIG1        0.0526
     34 N           2.7863   -4.3537   -6.6319 N.am    1  LIG1       -0.2847
     35 C           2.4340   -4.7191   -7.9181 C.2     1  LIG1        0.2369
     36 O           3.0683   -4.2689   -8.8809 O.2     1  LIG1       -0.2735
     37 C           1.1518   -5.5915   -8.1381 C.3     1  LIG1        0.1022
     38 H           0.8450   -6.0548   -7.1945 H       1  LIG1        0.0597
     39 N           0.0249   -4.7092   -8.5734 N.am    1  LIG1       -0.2984
     40 C          -1.3302   -5.0025   -8.5072 C.2     1  LIG1        0.2663
     41 O          -1.7753   -6.1320   -8.1606 O.2     1  LIG1       -0.2684
     42 C          -2.2805   -3.9126   -8.7724 C.ar    1  LIG1        0.1678
     43 C          -3.6543   -3.7917   -8.4104 C.ar    1  LIG1        0.0125
     44 C          -3.9586   -2.4609   -8.5616 C.ar    1  LIG1        0.1350
     45 C          -5.0804   -1.5646   -8.1964 C.3     1  LIG1       -0.0037
     46 O          -2.9112   -1.8536   -9.1905 O.2     1  LIG1       -0.3592
     47 N          -1.8588   -2.7403   -9.3360 N.ar    1  LIG1       -0.0734
     48 C           1.4946   -6.7366   -9.1563 C.3     1  LIG1       -0.0197
     49 C           2.5435   -7.7257   -8.6054 C.3     1  LIG1       -0.0605
     50 C           0.2922   -7.6106   -9.4998 C.3     1  LIG1       -0.0605
     51 H           8.6910   -1.8617    1.1602 H       1  LIG1        0.0262
     52 H           8.2259   -2.7384   -0.3237 H       1  LIG1        0.0262
     53 H           7.0356   -1.8391    0.6249 H       1  LIG1        0.0262
     54 H           9.3605   -0.3452   -0.6135 H       1  LIG1        0.0695
     55 H           7.7932    0.2788   -0.0869 H       1  LIG1        0.0695
     56 H           6.7442   -1.5719   -3.9291 H       1  LIG1        0.0686
     57 H           9.2620   -3.3322   -4.2306 H       1  LIG1        0.0593
     58 H           8.0979   -4.2255   -7.7235 H       1  LIG1        0.0293
     59 H           9.5353   -4.0132   -6.7367 H       1  LIG1        0.0293
     60 H           9.2918   -1.2933   -9.4254 H       1  LIG1        0.0288
     61 H           9.4264   -3.0561   -9.4545 H       1  LIG1        0.0288
     62 H          11.6187   -1.4645   -9.0229 H       1  LIG1        0.0462
     63 H          11.4537   -2.9731   -8.0748 H       1  LIG1        0.0462
     64 H          11.5488   -0.7347   -6.6418 H       1  LIG1        0.1487
     65 H           6.1216   -2.2831   -5.8344 H       1  LIG1        0.1493
     66 H           2.7890   -2.1052   -5.0862 H       1  LIG1        0.0324
     67 H           4.3962   -2.4250   -4.4497 H       1  LIG1        0.0324
     68 H           1.2417   -2.0035   -1.5246 H       1  LIG1        0.0654
     69 H           2.4100   -0.7622    0.2770 H       1  LIG1        0.0619
     70 H           4.8022   -1.2059    0.7254 H       1  LIG1        0.0618
     71 H           5.9659   -3.0142   -0.5862 H       1  LIG1        0.0619
     72 H           4.8310   -4.2775   -2.2615 H       1  LIG1        0.0654
     73 H           1.1078   -4.2480   -5.3923 H       1  LIG1        0.0501
     74 H           2.0050   -5.7830   -5.2946 H       1  LIG1        0.0501
     75 H           0.2299   -3.7104   -8.7022 H       1  LIG1        0.1498
     76 H          -4.2878   -4.5613   -7.9724 H       1  LIG1        0.0676
     77 H          -5.8407   -2.0625   -7.5854 H       1  LIG1        0.0309
     78 H          -5.5610   -1.1737   -9.0974 H       1  LIG1        0.0309
     79 H          -4.7153   -0.7046   -7.6186 H       1  LIG1        0.0309
     80 H           1.8845   -6.2994  -10.0862 H       1  LIG1        0.0318
     81 H           2.2695   -8.0565   -7.5975 H       1  LIG1        0.0233
     82 H           3.5545   -7.3112   -8.5792 H       1  LIG1        0.0233
     83 H           2.5850   -8.6283   -9.2321 H       1  LIG1        0.0233
     84 H          -0.0873   -8.0879   -8.5878 H       1  LIG1        0.0233
     85 H           0.5681   -8.4057  -10.2007 H       1  LIG1        0.0233
     86 H          -0.4998   -7.0415   -9.9837 H       1  LIG1        0.0233
@<TRIPOS>BOND
     1     1     2    1
     2     2     3    1
     3     3     4    1
     4     4     5    2
     5     4     6    1
     6     6     7    2
     7     8    10    1
     8    11    13    1
     9    13    14    1
    10    14    15    1
    11    15    16   am
    12    11    16    1
    13    16    17    2
    14     8    18    1
    15    18    19   am
    16    19    20    2
    17    21    23    1
    18    23    24    1
    19    26    27    1
    20    27    28   ar
    21    28    29   ar
    22    29    30   ar
    23    30    31   ar
    24    31    32   ar
    25    27    32   ar
    26    24    33    1
    27    33    34    1
    28    21    34    1
    29    34    35   am
    30    35    36    2
    31    35    37    1
    32    37    38    1
    33    37    39    1
    34    39    40   am
    35    40    41    2
    36    40    42    1
    37    42    43   ar
    38    43    44   ar
    39    44    45    1
    40    44    46   ar
    41    46    47   ar
    42    42    47   ar
    43    37    48    1
    44    48    49    1
    45    48    50    1
    46     8     9    1
    47     8     7    1
    48    11    12    1
    49    11    10    1
    50    21    22    1
    51    21    19    1
    52    24    26    1
    53    24    25    1
    54     1    51    1
    55     1    52    1
    56     1    53    1
    57     2    54    1
    58     2    55    1
    59     6    56    1
    60     7    57    1
    61    10    58    1
    62    10    59    1
    63    13    60    1
    64    13    61    1
    65    14    62    1
    66    14    63    1
    67    15    64    1
    68    18    65    1
    69    23    66    1
    70    23    67    1
    71    28    68    1
    72    29    69    1
    73    30    70    1
    74    31    71    1
    75    32    72    1
    76    33    73    1
    77    33    74    1
    78    39    75    1
    79    43    76    1
    80    45    77    1
    81    45    78    1
    82    45    79    1
    83    48    80    1
    84    49    81    1
    85    49    82    1
    86    49    83    1
    87    50    84    1
    88    50    85    1
    89    50    86    1
@<TRIPOS>MOLECULE
*****
 79 81 0 0 0
SMALL
GASTEIGER

@<TRIPOS>ATOM
      1 C           7.2805    4.8276   -8.2158 C.3     1  LIG1       -0.0306
      2 C           8.6317    4.5161   -7.5950 C.3     1  LIG1        0.0900
      3 O           8.8376    3.1045   -7.7143 O.3     1  LIG1       -0.4618
      4 C           9.3851    2.7041   -8.8890 C.2     1  LIG1        0.3317
      5 O          10.0238    3.3803   -9.6770 O.2     1  LIG1       -0.2456
      6 C           8.9206    1.3233   -9.1334 C.2     1  LIG1        0.0203
      7 C           9.3608    0.5876  -10.1688 C.2     1  LIG1       -0.0572
      8 C           8.9013   -0.8355  -10.3885 C.3     1  LIG1        0.0427
      9 H           8.2422   -1.1333   -9.5650 H       1  LIG1        0.0543
     10 C          10.0741   -1.8352  -10.4691 C.3     1  LIG1       -0.0197
     11 C          11.0390   -1.8572   -9.2721 C.3     1  LIG1        0.0389
     12 H          11.5256   -0.8897   -9.1125 H       1  LIG1        0.0395
     13 C          12.1056   -2.9536   -9.4595 C.3     1  LIG1       -0.0262
     14 C          11.5349   -4.1881   -8.7801 C.3     1  LIG1        0.0123
     15 N          10.5812   -3.6672   -7.8503 N.am    1  LIG1       -0.3151
     16 C          10.3620   -2.3166   -7.9988 C.2     1  LIG1        0.2162
     17 O           9.7055   -1.6226   -7.2416 O.2     1  LIG1       -0.2755
     18 N           8.0769   -0.8643  -11.6068 N.am    1  LIG1       -0.3075
     19 C           7.2825   -1.9635  -11.9545 C.2     1  LIG1        0.2340
     20 O           7.2736   -2.9999  -11.2957 O.2     1  LIG1       -0.2738
     21 C           6.3689   -1.7471  -13.2124 C.3     1  LIG1        0.1026
     22 H           7.0278   -1.4821  -14.0463 H       1  LIG1        0.0597
     23 C           5.3642   -0.6229  -12.9091 C.3     1  LIG1       -0.0206
     24 C           4.1864   -1.3818  -12.2830 C.3     1  LIG1       -0.0103
     25 H           4.4517   -1.6616  -11.2548 H       1  LIG1        0.0326
     26 C           2.8927   -0.5706  -12.2757 C.3     1  LIG1        0.0391
     27 C           1.8075   -1.3278  -11.6725 C.1     1  LIG1        0.0628
     28 N           0.9394   -1.9732  -11.1921 N.1     1  LIG1       -0.1966
     29 C           4.1120   -2.6419  -13.1471 C.3     1  LIG1        0.0193
     30 N           5.4646   -2.8473  -13.6465 N.am    1  LIG1       -0.2881
     31 C           5.8347   -3.7848  -14.6152 C.2     1  LIG1        0.2368
     32 O           7.0119   -3.8717  -14.9691 O.2     1  LIG1       -0.2735
     33 C           4.6886   -4.6604  -15.2853 C.3     1  LIG1        0.1022
     34 H           4.1109   -5.0950  -14.4597 H       1  LIG1        0.0597
     35 N           3.7492   -3.7852  -16.0283 N.am    1  LIG1       -0.2984
     36 C           2.4243   -4.0976  -16.3021 C.2     1  LIG1        0.2663
     37 O           1.8958   -5.1427  -15.9370 O.2     1  LIG1       -0.2684
     38 C           1.6859   -3.0535  -17.0439 C.ar    1  LIG1        0.1678
     39 C           0.3195   -3.0348  -17.4645 C.ar    1  LIG1        0.0125
     40 C           0.1662   -1.8294  -18.1127 C.ar    1  LIG1        0.1350
     41 C          -0.9430   -1.1180  -18.7858 C.3     1  LIG1       -0.0037
     42 O           1.3521   -1.1663  -18.0869 O.2     1  LIG1       -0.3592
     43 N           2.2979   -1.9137  -17.4162 N.ar    1  LIG1       -0.0734
     44 C           5.1605   -5.8694  -16.1731 C.3     1  LIG1       -0.0197
     45 C           5.9115   -5.5313  -17.4680 C.3     1  LIG1       -0.0605
     46 C           5.9953   -6.8974  -15.3998 C.3     1  LIG1       -0.0605
     47 H           7.0908    5.9021   -8.2277 H       1  LIG1        0.0262
     48 H           6.4827    4.3310   -7.6515 H       1  LIG1        0.0262
     49 H           7.2185    4.4428   -9.2401 H       1  LIG1        0.0262
     50 H           8.6232    4.7718   -6.5301 H       1  LIG1        0.0695
     51 H           9.4357    5.0916   -8.0663 H       1  LIG1        0.0695
     52 H           8.1756    0.9440   -8.4413 H       1  LIG1        0.0686
     53 H          10.1145    1.0074  -10.8353 H       1  LIG1        0.0593
     54 H          10.6562   -1.6448  -11.3811 H       1  LIG1        0.0293
     55 H           9.6504   -2.8388  -10.5856 H       1  LIG1        0.0293
     56 H          13.0315   -2.6544   -8.9529 H       1  LIG1        0.0288
     57 H          12.3563   -3.1421  -10.5084 H       1  LIG1        0.0288
     58 H          12.3010   -4.7393   -8.2272 H       1  LIG1        0.0462
     59 H          11.0330   -4.8651   -9.4776 H       1  LIG1        0.0462
     60 H          10.1867   -4.1780   -7.0697 H       1  LIG1        0.1487
     61 H           7.9629    0.0026  -12.1172 H       1  LIG1        0.1493
     62 H           5.0586   -0.1458  -13.8492 H       1  LIG1        0.0291
     63 H           5.7310    0.1592  -12.2386 H       1  LIG1        0.0291
     64 H           3.0432    0.3589  -11.7153 H       1  LIG1        0.0421
     65 H           2.6122   -0.2791  -13.2986 H       1  LIG1        0.0421
     66 H           3.4447   -2.4787  -13.9943 H       1  LIG1        0.0468
     67 H           3.7756   -3.5206  -12.5877 H       1  LIG1        0.0468
     68 H           4.0282   -2.8300  -16.2395 H       1  LIG1        0.1498
     69 H          -0.4353   -3.7941  -17.3090 H       1  LIG1        0.0676
     70 H          -1.4607   -0.4604  -18.0795 H       1  LIG1        0.0309
     71 H          -1.6761   -1.8070  -19.2158 H       1  LIG1        0.0309
     72 H          -0.5599   -0.4908  -19.5995 H       1  LIG1        0.0309
     73 H           4.2513   -6.4003  -16.4920 H       1  LIG1        0.0318
     74 H           6.8558   -5.0159  -17.2760 H       1  LIG1        0.0233
     75 H           5.3057   -4.9296  -18.1501 H       1  LIG1        0.0233
     76 H           6.1625   -6.4578  -18.0063 H       1  LIG1        0.0233
     77 H           6.9496   -6.4808  -15.0652 H       1  LIG1        0.0233
     78 H           6.2292   -7.7571  -16.0421 H       1  LIG1        0.0233
     79 H           5.4508   -7.2793  -14.5325 H       1  LIG1        0.0233
@<TRIPOS>BOND
     1     1     2    1
     2     2     3    1
     3     3     4    1
     4     4     5    2
     5     4     6    1
     6     6     7    2
     7     8    10    1
     8    11    13    1
     9    13    14    1
    10    14    15    1
    11    15    16   am
    12    11    16    1
    13    16    17    2
    14     8    18    1
    15    18    19   am
    16    19    20    2
    17    21    23    1
    18    23    24    1
    19    26    27    1
    20    27    28    3
    21    24    29    1
    22    29    30    1
    23    21    30    1
    24    30    31   am
    25    31    32    2
    26    31    33    1
    27    33    34    1
    28    33    35    1
    29    35    36   am
    30    36    37    2
    31    36    38    1
    32    38    39   ar
    33    39    40   ar
    34    40    41    1
    35    40    42   ar
    36    42    43   ar
    37    38    43   ar
    38    33    44    1
    39    44    45    1
    40    44    46    1
    41    21    22    1
    42    21    19    1
    43    24    26    1
    44    24    25    1
    45    11    12    1
    46    11    10    1
    47     8     9    1
    48     8     7    1
    49     1    47    1
    50     1    48    1
    51     1    49    1
    52     2    50    1
    53     2    51    1
    54     6    52    1
    55     7    53    1
    56    10    54    1
    57    10    55    1
    58    13    56    1
    59    13    57    1
    60    14    58    1
    61    14    59    1
    62    15    60    1
    63    18    61    1
    64    23    62    1
    65    23    63    1
    66    26    64    1
    67    26    65    1
    68    29    66    1
    69    29    67    1
    70    35    68    1
    71    39    69    1
    72    41    70    1
    73    41    71    1
    74    41    72    1
    75    44    73    1
    76    45    74    1
    77    45    75    1
    78    45    76    1
    79    46    77    1
    80    46    78    1
    81    46    79    1
@<TRIPOS>MOLECULE
*****
 82 85 0 0 0
SMALL
GASTEIGER

@<TRIPOS>ATOM
      1 C           5.9936   -3.4451    9.0686 C.3     1  LIG1       -0.0306
      2 C           6.2913   -1.9580    9.0003 C.3     1  LIG1        0.0900
      3 O           5.1666   -1.2354    8.4877 O.3     1  LIG1       -0.4618
      4 C           5.0430   -1.2280    7.1399 C.2     1  LIG1        0.3317
      5 O           5.7607   -1.8032    6.3354 O.2     1  LIG1       -0.2456
      6 C           3.8385   -0.4914    6.7251 C.2     1  LIG1        0.0203
      7 C           3.1969    0.4226    7.4741 C.2     1  LIG1       -0.0572
      8 C           1.9698    1.1942    7.0416 C.3     1  LIG1        0.0427
      9 H           1.9902    2.1973    7.4826 H       1  LIG1        0.0543
     10 C           0.6997    0.4230    7.4667 C.3     1  LIG1       -0.0197
     11 C           0.5366    0.1865    8.9779 C.3     1  LIG1        0.0389
     12 H           1.3986   -0.3341    9.4100 H       1  LIG1        0.0395
     13 C          -0.7436   -0.6124    9.2962 C.3     1  LIG1       -0.0262
     14 C          -1.7981    0.4497    9.5387 C.3     1  LIG1        0.0123
     15 N          -1.0455    1.5397   10.0707 N.am    1  LIG1       -0.3151
     16 C           0.2934    1.4826    9.7294 C.2     1  LIG1        0.2162
     17 O           1.1047    2.3417    9.9566 O.2     1  LIG1       -0.2755
     18 N           1.9921    1.3762    5.5863 N.am    1  LIG1       -0.3075
     19 C           3.0079    2.0618    4.9335 C.2     1  LIG1        0.2347
     20 O           3.9386    2.5837    5.5542 O.2     1  LIG1       -0.2737
     21 C           2.9277    2.0139    3.3717 C.3     1  LIG1        0.1104
     22 H           2.7656    0.9848    3.0157 H       1  LIG1        0.0603
     23 C           4.0751    2.7295    2.6050 C.3     1  LIG1        0.0270
     24 H           4.7091    3.3338    3.2725 H       1  LIG1        0.0387
     25 C           5.0269    1.8415    1.6771 C.ar    1  LIG1       -0.0405
     26 C           5.7966    0.7883    2.2122 C.ar    1  LIG1       -0.0582
     27 C           6.6356    0.0036    1.4131 C.ar    1  LIG1       -0.0615
     28 C           6.7367    0.2551    0.0491 C.ar    1  LIG1       -0.0617
     29 C           6.0042    1.2915   -0.5119 C.ar    1  LIG1       -0.0615
     30 C           5.1705    2.0696    0.2930 C.ar    1  LIG1       -0.0582
     31 C           3.0179    3.6329    1.9578 C.3     1  LIG1        0.0245
     32 N           1.9836    2.9356    2.7036 N.am    1  LIG1       -0.2871
     33 C           0.7261    2.5333    2.3029 C.2     1  LIG1        0.2368
     34 O           0.0122    1.8735    3.0656 O.2     1  LIG1       -0.2735
     35 C           0.3478    2.7677    0.8127 C.3     1  LIG1        0.1022
     36 H           1.0070    3.5152    0.3693 H       1  LIG1        0.0597
     37 N           0.5618    1.4855    0.1285 N.am    1  LIG1       -0.2984
     38 C           1.4630    1.3323   -0.9070 C.2     1  LIG1        0.2663
     39 O           2.0818    2.2798   -1.3895 O.2     1  LIG1       -0.2684
     40 C           1.5982   -0.0280   -1.4359 C.ar    1  LIG1        0.1678
     41 C           1.9487   -0.3959   -2.7634 C.ar    1  LIG1        0.0125
     42 C           1.9741   -1.7670   -2.7566 C.ar    1  LIG1        0.1350
     43 C           2.2583   -2.7888   -3.7839 C.3     1  LIG1       -0.0037
     44 O           1.6630   -2.2083   -1.5077 O.2     1  LIG1       -0.3592
     45 N           1.3981   -1.1246   -0.6810 N.ar    1  LIG1       -0.0734
     46 C          -1.0950    3.2924    0.6396 C.3     1  LIG1       -0.0197
     47 C          -1.2452    4.6536    1.3331 C.3     1  LIG1       -0.0605
     48 C          -1.4631    3.4668   -0.8420 C.3     1  LIG1       -0.0605
     49 H           6.8474   -3.9873    9.4840 H       1  LIG1        0.0262
     50 H           5.7704   -3.8541    8.0782 H       1  LIG1        0.0262
     51 H           5.1159   -3.6349    9.6951 H       1  LIG1        0.0262
     52 H           7.1891   -1.7536    8.4063 H       1  LIG1        0.0695
     53 H           6.4768   -1.5773   10.0097 H       1  LIG1        0.0695
     54 H           3.5115   -0.7237    5.7185 H       1  LIG1        0.0686
     55 H           3.5781    0.6783    8.4627 H       1  LIG1        0.0593
     56 H           0.7067   -0.5585    6.9707 H       1  LIG1        0.0293
     57 H          -0.1787    0.9512    7.0759 H       1  LIG1        0.0293
     58 H          -0.5903   -1.1875   10.2192 H       1  LIG1        0.0288
     59 H          -1.0319   -1.3199    8.5128 H       1  LIG1        0.0288
     60 H          -2.5678    0.1357   10.2499 H       1  LIG1        0.0462
     61 H          -2.2687    0.7822    8.6089 H       1  LIG1        0.0462
     62 H          -1.4278    2.3712   10.5059 H       1  LIG1        0.1487
     63 H           1.1413    1.2156    5.0521 H       1  LIG1        0.1493
     64 H           5.7481    0.5744    3.2801 H       1  LIG1        0.0620
     65 H           7.2105   -0.8031    1.8607 H       1  LIG1        0.0618
     66 H           7.3868   -0.3512   -0.5746 H       1  LIG1        0.0618
     67 H           6.0745    1.5047   -1.5750 H       1  LIG1        0.0618
     68 H           4.6223    2.8744   -0.1911 H       1  LIG1        0.0620
     69 H           2.9353    3.5616    0.8764 H       1  LIG1        0.0471
     70 H           3.0864    4.6893    2.2349 H       1  LIG1        0.0471
     71 H           0.0873    0.6507    0.4675 H       1  LIG1        0.1498
     72 H           2.1406    0.2604   -3.5997 H       1  LIG1        0.0676
     73 H           2.0844   -3.8021   -3.4085 H       1  LIG1        0.0309
     74 H           3.3010   -2.7224   -4.1109 H       1  LIG1        0.0309
     75 H           1.6185   -2.6405   -4.6603 H       1  LIG1        0.0309
     76 H          -1.8073    2.5892    1.0884 H       1  LIG1        0.0318
     77 H          -0.5275    5.3794    0.9325 H       1  LIG1        0.0233
     78 H          -1.0773    4.5738    2.4111 H       1  LIG1        0.0233
     79 H          -2.2506    5.0610    1.1840 H       1  LIG1        0.0233
     80 H          -0.7771    4.1597   -1.3429 H       1  LIG1        0.0233
     81 H          -2.4761    3.8726   -0.9438 H       1  LIG1        0.0233
     82 H          -1.4382    2.5147   -1.3805 H       1  LIG1        0.0233
@<TRIPOS>BOND
     1     1     2    1
     2     2     3    1
     3     3     4    1
     4     4     5    2
     5     4     6    1
     6     6     7    2
     7     8    10    1
     8    11    13    1
     9    13    14    1
    10    14    15    1
    11    15    16   am
    12    11    16    1
    13    16    17    2
    14     8    18    1
    15    18    19   am
    16    19    20    2
    17    21    23    1
    18    23    24    1
    19    23    25    1
    20    25    26   ar
    21    26    27   ar
    22    27    28   ar
    23    28    29   ar
    24    29    30   ar
    25    25    30   ar
    26    23    31    1
    27    31    32    1
    28    21    32    1
    29    32    33   am
    30    33    34    2
    31    33    35    1
    32    35    36    1
    33    35    37    1
    34    37    38   am
    35    38    39    2
    36    38    40    1
    37    40    41   ar
    38    41    42   ar
    39    42    43    1
    40    42    44   ar
    41    44    45   ar
    42    40    45   ar
    43    35    46    1
    44    46    47    1
    45    46    48    1
    46     8     9    1
    47     8     7    1
    48    11    12    1
    49    11    10    1
    50    21    22    1
    51    21    19    1
    52     1    49    1
    53     1    50    1
    54     1    51    1
    55     2    52    1
    56     2    53    1
    57     6    54    1
    58     7    55    1
    59    10    56    1
    60    10    57    1
    61    13    58    1
    62    13    59    1
    63    14    60    1
    64    14    61    1
    65    15    62    1
    66    18    63    1
    67    26    64    1
    68    27    65    1
    69    28    66    1
    70    29    67    1
    71    30    68    1
    72    31    69    1
    73    31    70    1
    74    37    71    1
    75    41    72    1
    76    43    73    1
    77    43    74    1
    78    43    75    1
    79    46    76    1
    80    47    77    1
    81    47    78    1
    82    47    79    1
    83    48    80    1
    84    48    81    1
    85    48    82    1
@<TRIPOS>MOLECULE
*****
 57 59 0 0 0
SMALL
GASTEIGER

@<TRIPOS>ATOM
      1 C           2.1850   -0.8659   -2.8859 C.3     0  UNK0       -0.0037
      2 C           2.7214    0.4873   -2.6212 C.ar    0  UNK0        0.1350
      3 C           2.8868    1.2530   -1.4984 C.ar    0  UNK0        0.0125
      4 C           3.5594    2.4371   -1.9359 C.ar    0  UNK0        0.1678
      5 C           4.0156    3.5804   -1.0998 C.2     0  UNK0        0.2663
      6 O           3.6087    3.7552    0.0213 O.2     0  UNK0       -0.2684
      7 N           4.9739    4.3786   -1.6837 N.am    1  PHE1       -0.2984
      8 CA          5.6196    5.5080   -0.9815 C.3     1  PHE1        0.1036
      9 HA          4.8771    5.9302   -0.2919 H       1  PHE1        0.0598
     10 CB          6.8472    5.0461   -0.1532 C.3     1  PHE1       -0.0006
     11 CG          7.5697    6.1089    0.6637 C.ar    1  PHE1       -0.0451
     12 CD1         7.1669    6.4038    1.9751 C.ar    1  PHE1       -0.0585
     13 CE1         7.8903    7.3088    2.7630 C.ar    1  PHE1       -0.0615
     14 CZ          9.0288    7.9300    2.2551 C.ar    1  PHE1       -0.0617
     15 CE2         9.4301    7.6649    0.9487 C.ar    1  PHE1       -0.0615
     16 CD2         8.7024    6.7674    0.1564 C.ar    1  PHE1       -0.0585
     17 C           5.9974    6.5847   -2.0324 C.2     1  PHE1        0.2342
     18 O           7.0481    6.5464   -2.6736 O.2     1  PHE1       -0.2738
     19 N           5.0106    7.5263   -2.3045 N.am    2  UNK2       -0.3044
     20 C           5.3123    8.7413   -3.0888 C.3     2  UNK2        0.0791
     21 H           6.1116    8.5146   -3.8009 H       2  UNK2        0.0574
     22 C           5.8542    9.7567   -2.0884 C.2     2  UNK2        0.1404
     23 O           5.3540    9.9801   -0.9879 O.2     2  UNK2       -0.2991
     24 C           4.0658    9.2754   -3.8319 C.3     2  UNK2       -0.0168
     25 C           4.2514   10.5257   -4.7535 C.3     2  UNK2        0.0377
     26 H           5.0240   10.2874   -5.4981 H       2  UNK2        0.0395
     27 C           4.7007   11.7787   -3.9889 C.3     2  UNK2       -0.0404
     28 C           4.5352   13.0735   -4.7706 C.3     2  UNK2       -0.0367
     29 C           3.0988   13.2267   -5.2084 C.3     2  UNK2        0.0116
     30 N           2.6375   12.0513   -5.9032 N.am    2  UNK2       -0.3151
     31 C           2.9742   10.7662   -5.5774 C.2     2  UNK2        0.2162
     32 O           2.3120    9.8444   -6.0506 O.2     2  UNK2       -0.2755
     33 N           3.7496    2.3795   -3.2772 N.ar    0  UNK0       -0.0734
     34 O           3.2114    1.1700   -3.6923 O.2     0  UNK0       -0.3592
     35 H           1.4512   -1.1581   -2.1275 H       0  UNK0        0.0309
     36 H           2.9947   -1.6034   -2.8715 H       0  UNK0        0.0309
     37 H           1.6967   -0.9204   -3.8643 H       0  UNK0        0.0309
     38 H           2.6135    0.9955   -0.4820 H       0  UNK0        0.0676
     39 H           5.3134    4.1145   -2.6235 H       1  PHE1        0.1498
     40 HB1         7.5808    4.5388   -0.7955 H       1  PHE1        0.0336
     41 HB2         6.5208    4.2671    0.5513 H       1  PHE1        0.0336
     42 HD1         6.3012    5.9099    2.4104 H       1  PHE1        0.0620
     43 HE1         7.5725    7.5200    3.7814 H       1  PHE1        0.0618
     44 HZ          9.6020    8.6149    2.8761 H       1  PHE1        0.0618
     45 HE2        10.3191    8.1486    0.5501 H       1  PHE1        0.0618
     46 HD2         9.0463    6.5725   -0.8580 H       1  PHE1        0.0620
     47 H           4.2609    7.6062   -1.6244 H       2  UNK2        0.1494
     48 H           6.7144   10.3506   -2.4446 H       2  UNK2        0.1046
     49 H           3.2675    9.4923   -3.1087 H       2  UNK2        0.0294
     50 H           3.6816    8.4481   -4.4455 H       2  UNK2        0.0294
     51 H           5.7645   11.6996   -3.7553 H       2  UNK2        0.0273
     52 H           4.1494   11.8579   -3.0445 H       2  UNK2        0.0273
     53 H           5.1986   13.0675   -5.6434 H       2  UNK2        0.0280
     54 H           4.8293   13.9239   -4.1442 H       2  UNK2        0.0280
     55 H           2.9905   14.0833   -5.8821 H       2  UNK2        0.0462
     56 H           2.4403   13.3889   -4.3476 H       2  UNK2        0.0462
     57 H           1.7752   12.1192   -6.4327 H       2  UNK2        0.1487
@<TRIPOS>BOND
     1     1     2    1
     2     2     3   ar
     3     3     4   ar
     4     4     5    1
     5     5     6    2
     6     5     7   am
     7     7     8    1
     8     8     9    1
     9     8    10    1
    10    10    11    1
    11    11    12   ar
    12    12    13   ar
    13    13    14   ar
    14    14    15   ar
    15    15    16   ar
    16    11    16   ar
    17     8    17    1
    18    17    18    2
    19    17    19   am
    20    20    22    1
    21    22    23    2
    22    20    24    1
    23    24    25    1
    24    25    26    1
    25    25    27    1
    26    27    28    1
    27    28    29    1
    28    29    30    1
    29    30    31   am
    30    25    31    1
    31    31    32    2
    32     4    33   ar
    33    33    34   ar
    34     2    34   ar
    35    20    21    1
    36    20    19    1
    37     1    35    1
    38     1    36    1
    39     1    37    1
    40     3    38    1
    41     7    39    1
    42    10    40    1
    43    10    41    1
    44    12    42    1
    45    13    43    1
    46    14    44    1
    47    15    45    1
    48    16    46    1
    49    19    47    1
    50    22    48    1
    51    24    49    1
    52    24    50    1
    53    27    51    1
    54    27    52    1
    55    28    53    1
    56    28    54    1
    57    29    55    1
    58    29    56    1
    59    30    57    1
@<TRIPOS>MOLECULE
*****
 82 84 0 0 0
SMALL
GASTEIGER

@<TRIPOS>ATOM
      1 C           3.5869    5.8842   -2.8569 C.3     1  LIG1       -0.0306
      2 C           2.9811    4.5970   -3.3846 C.3     1  LIG1        0.0900
      3 O           3.9594    3.6772   -3.9007 O.3     1  LIG1       -0.4618
      4 C           4.4453    3.9747   -5.1365 C.2     1  LIG1        0.3317
      5 O           4.3540    5.0393   -5.7200 O.2     1  LIG1       -0.2456
      6 C           4.9711    2.7237   -5.7266 C.2     1  LIG1        0.0203
      7 C           5.4093    2.6852   -7.0050 C.2     1  LIG1       -0.0572
      8 C           5.8216    1.4435   -7.7851 C.3     1  LIG1        0.0427
      9 C           5.5941    0.1128   -7.0452 C.3     1  LIG1       -0.0197
     10 C           5.9780   -1.1703   -7.8036 C.3     1  LIG1        0.0389
     11 H           5.4891   -1.2733   -8.7825 H       1  LIG1        0.0395
     12 C           5.6777   -2.4306   -6.9852 C.3     1  LIG1       -0.0262
     13 C           6.9451   -2.6719   -6.2133 C.3     1  LIG1        0.0123
     14 N           7.9646   -2.1644   -7.0723 N.am    1  LIG1       -0.3151
     15 C           7.4731   -1.2867   -8.0133 C.2     1  LIG1        0.2162
     16 O           8.1279   -0.6769   -8.8418 O.2     1  LIG1       -0.2755
     17 N           5.2026    1.5488   -9.1115 N.am    1  LIG1       -0.3088
     18 C           4.2052    0.7614   -9.6541 C.2     1  LIG1        0.2173
     19 O           3.5643   -0.0758   -9.0218 O.2     1  LIG1       -0.2755
     20 C           3.8563    1.0277  -11.1302 C.3     1  LIG1        0.0462
     21 H           3.1413    0.2505  -11.4304 H       1  LIG1        0.0401
     22 C           3.1615    2.3873  -11.1341 C.3     1  LIG1        0.0191
     23 C           2.4012    2.9013  -12.3478 C.2     1  LIG1        0.1544
     24 O           2.9790    3.7267  -13.0677 O.2     1  LIG1       -0.2954
     25 C           0.9335    2.5297  -12.6779 C.3     1  LIG1        0.0841
     26 H           0.4872    3.5148  -12.8820 H       1  LIG1        0.0580
     27 N           0.8481    1.7616  -13.9556 N.am    1  LIG1       -0.3001
     28 C           0.7558    2.3381  -15.2218 C.2     1  LIG1        0.2663
     29 O           0.7929    3.5509  -15.4069 O.2     1  LIG1       -0.2684
     30 C           0.5390    1.3981  -16.3508 C.ar    1  LIG1        0.1678
     31 C           0.8176    1.6014  -17.7401 C.ar    1  LIG1        0.0125
     32 C           0.2112    0.5483  -18.3869 C.ar    1  LIG1        0.1350
     33 C          -0.0519    0.1886  -19.8024 C.3     1  LIG1       -0.0037
     34 O          -0.2861   -0.3036  -17.4485 O.2     1  LIG1       -0.3592
     35 N          -0.0632    0.2061  -16.1767 N.ar    1  LIG1       -0.0734
     36 C           0.0503    1.8834  -11.5746 C.3     1  LIG1       -0.0213
     37 C          -0.1176    2.6629  -10.2556 C.3     1  LIG1       -0.0606
     38 C          -1.3770    1.7112  -12.1346 C.3     1  LIG1       -0.0606
     39 C           5.1211    0.8730  -11.9956 C.3     1  LIG1       -0.0162
     40 C           4.8909    1.0124  -13.4785 C.ar    1  LIG1       -0.0465
     41 C           4.4934   -0.0779  -14.2625 C.ar    1  LIG1       -0.0558
     42 C           4.3129    0.0786  -15.6395 C.ar    1  LIG1       -0.0262
     43 C           4.4585    1.3353  -16.2177 C.ar    1  LIG1        0.1234
     44 F           4.2599    1.4862  -17.5339 F       1  LIG1       -0.2055
     45 C           4.8005    2.4345  -15.4488 C.ar    1  LIG1       -0.0262
     46 C           5.0684    2.2598  -14.0927 C.ar    1  LIG1       -0.0558
     47 H           2.7986    6.6164   -2.6588 H       1  LIG1        0.0262
     48 H           4.3002    6.3238   -3.5586 H       1  LIG1        0.0262
     49 H           4.1284    5.7012   -1.9238 H       1  LIG1        0.0262
     50 H           2.2313    4.7981   -4.1583 H       1  LIG1        0.0695
     51 H           2.4582    4.0817   -2.5677 H       1  LIG1        0.0695
     52 H           4.8950    1.8438   -5.1079 H       1  LIG1        0.0686
     53 H           5.4736    3.6289   -7.5410 H       1  LIG1        0.0593
     54 H           6.8979    1.5607   -7.9720 H       1  LIG1        0.0543
     55 H           4.5489    0.0405   -6.7280 H       1  LIG1        0.0293
     56 H           6.1875    0.1448   -6.1052 H       1  LIG1        0.0293
     57 H           5.4887   -3.2682   -7.6626 H       1  LIG1        0.0288
     58 H           4.7910   -2.3383   -6.3342 H       1  LIG1        0.0288
     59 H           7.1283   -3.7386   -6.0122 H       1  LIG1        0.0462
     60 H           6.9808   -2.1126   -5.2685 H       1  LIG1        0.0462
     61 H           8.9588   -2.3456   -7.0222 H       1  LIG1        0.1487
     62 H           5.5412    2.3273   -9.6620 H       1  LIG1        0.1493
     63 H           3.9056    3.1622  -10.9049 H       1  LIG1        0.0350
     64 H           2.5000    2.4155  -10.2756 H       1  LIG1        0.0350
     65 H           0.7190    0.7564  -13.9276 H       1  LIG1        0.1498
     66 H           1.3263    2.4404  -18.1938 H       1  LIG1        0.0676
     67 H           0.0682    1.0482  -20.4713 H       1  LIG1        0.0309
     68 H          -1.0838   -0.1649  -19.9178 H       1  LIG1        0.0309
     69 H           0.6119   -0.6090  -20.1512 H       1  LIG1        0.0309
     70 H           0.4574    0.8950  -11.3282 H       1  LIG1        0.0317
     71 H          -0.6689    3.5973  -10.3974 H       1  LIG1        0.0233
     72 H           0.8026    2.9115   -9.7342 H       1  LIG1        0.0233
     73 H          -0.6910    2.0469   -9.5486 H       1  LIG1        0.0233
     74 H          -1.6669    2.5829  -12.7349 H       1  LIG1        0.0233
     75 H          -2.1213    1.6081  -11.3381 H       1  LIG1        0.0233
     76 H          -1.4415    0.8231  -12.7681 H       1  LIG1        0.0233
     77 H           5.5660   -0.1172  -11.8139 H       1  LIG1        0.0321
     78 H           5.9037    1.5802  -11.6923 H       1  LIG1        0.0321
     79 H           4.3380   -1.0561  -13.8133 H       1  LIG1        0.0621
     80 H           4.0560   -0.7694  -16.2659 H       1  LIG1        0.0646
     81 H           4.8384    3.4248  -15.8914 H       1  LIG1        0.0646
     82 H           5.3438    3.1312  -13.5002 H       1  LIG1        0.0621
@<TRIPOS>BOND
     1     1     2    1
     2     2     3    1
     3     3     4    1
     4     4     5    2
     5     4     6    1
     6     6     7    2
     7     7     8    1
     8     8     9    1
     9    10    12    1
    10    12    13    1
    11    13    14    1
    12    14    15   am
    13    10    15    1
    14    15    16    2
    15     8    17    1
    16    17    18   am
    17    18    19    2
    18    18    20    1
    19    20    21    1
    20    20    22    1
    21    22    23    1
    22    23    24    2
    23    23    25    1
    24    25    26    1
    25    25    27    1
    26    27    28   am
    27    28    29    2
    28    28    30    1
    29    30    31   ar
    30    31    32   ar
    31    32    33    1
    32    32    34   ar
    33    34    35   ar
    34    30    35   ar
    35    25    36    1
    36    36    37    1
    37    36    38    1
    38    20    39    1
    39    39    40    1
    40    40    41   ar
    41    41    42   ar
    42    42    43   ar
    43    43    44    1
    44    43    45   ar
    45    45    46   ar
    46    40    46   ar
    47    10    11    1
    48    10     9    1
    49     1    47    1
    50     1    48    1
    51     1    49    1
    52     2    50    1
    53     2    51    1
    54     6    52    1
    55     7    53    1
    56     8    54    1
    57     9    55    1
    58     9    56    1
    59    12    57    1
    60    12    58    1
    61    13    59    1
    62    13    60    1
    63    14    61    1
    64    17    62    1
    65    22    63    1
    66    22    64    1
    67    27    65    1
    68    31    66    1
    69    33    67    1
    70    33    68    1
    71    33    69    1
    72    36    70    1
    73    37    71    1
    74    37    72    1
    75    37    73    1
    76    38    74    1
    77    38    75    1
    78    38    76    1
    79    39    77    1
    80    39    78    1
    81    41    79    1
    82    42    80    1
    83    45    81    1
    84    46    82    1
@<TRIPOS>MOLECULE
*****
 88 91 0 0 0
SMALL
GASTEIGER

@<TRIPOS>ATOM
      1 C           6.2649    4.0181    3.1788 C.3     1  LIG1       -0.0626
      2 C           5.2491    2.8929    2.8788 C.3     1  LIG1       -0.0446
      3 C           4.0406    3.3038    2.0761 C.3     1  LIG1       -0.0626
      4 C           6.0060    1.7351    2.2284 C.3     1  LIG1       -0.0236
      5 C           5.2548    0.5182    1.6386 C.3     1  LIG1        0.0996
      6 H           6.0906   -0.1400    1.3703 H       1  LIG1        0.0594
      7 N           4.5549    0.6872    0.2981 N.am    1  LIG1       -0.3025
      8 C           4.5287    1.7662   -0.5708 C.2     1  LIG1        0.2344
      9 O           5.3241    2.7543   -0.4556 O.2     1  LIG1       -0.2737
     10 C           3.5763    1.7233   -1.8092 C.3     1  LIG1        0.1064
     11 H           2.7090    1.1116   -1.5583 H       1  LIG1        0.0599
     12 C           4.3530    1.0661   -2.9602 C.3     1  LIG1        0.0000
     13 C           3.4956    0.6849   -4.1522 C.ar    1  LIG1       -0.0374
     14 C           2.8672   -0.5739   -4.1575 C.ar    1  LIG1       -0.0579
     15 C           2.0780   -0.9685   -5.2348 C.ar    1  LIG1       -0.0609
     16 C           1.9122   -0.1167   -6.3252 C.ar    1  LIG1       -0.0540
     17 C           2.4984    1.1586   -6.3367 C.ar    1  LIG1       -0.0176
     18 C           2.2977    2.0309   -7.4214 C.ar    1  LIG1       -0.0540
     19 C           2.7994    3.3331   -7.4015 C.ar    1  LIG1       -0.0612
     20 C           3.5624    3.7606   -6.3281 C.ar    1  LIG1       -0.0612
     21 C           3.8519    2.8724   -5.2968 C.ar    1  LIG1       -0.0538
     22 C           3.2960    1.5751   -5.2431 C.ar    1  LIG1       -0.0146
     23 N           3.0939    3.0920   -2.1876 N.am    1  LIG1       -0.2695
     24 C           1.9845    3.5506   -1.5039 C.2     1  LIG1        0.4012
     25 O           1.2368    2.8027   -0.9625 O.2     1  LIG1       -0.2265
     26 O           1.7773    4.8934   -1.5535 O.3     1  LIG1       -0.4456
     27 C           0.5943    5.3207   -0.8279 C.3     1  LIG1        0.1191
     28 C           0.7615    5.8663    0.5885 C.ar    1  LIG1       -0.0103
     29 C           1.5108    5.2593    1.5923 C.ar    1  LIG1       -0.0554
     30 C           1.5273    5.7467    2.9222 C.ar    1  LIG1       -0.0614
     31 C           0.7440    6.8360    3.2763 C.ar    1  LIG1       -0.0617
     32 C          -0.0458    7.4257    2.2998 C.ar    1  LIG1       -0.0614
     33 C          -0.0408    6.9399    0.9853 C.ar    1  LIG1       -0.0554
     34 C           4.4923   -0.3569    2.7618 C.2     1  LIG1        0.2338
     35 O           3.8749    0.1470    3.7052 O.2     1  LIG1       -0.2738
     36 N           4.6251   -1.7403    2.5722 N.am    1  LIG1       -0.3075
     37 C           4.1070   -2.8666    3.4080 C.3     1  LIG1        0.0426
     38 C           2.6530   -3.1340    2.9496 C.2     1  LIG1       -0.0609
     39 C           1.9775   -4.2843    2.7435 C.2     1  LIG1       -0.0246
     40 C           0.4752   -4.2480    2.6955 C.2     1  LIG1        0.1429
     41 O          -0.1882   -3.2288    2.8373 O.2     1  LIG1       -0.2963
     42 C           5.1065   -4.1425    3.3881 C.3     1  LIG1       -0.0197
     43 C           6.4856   -4.0730    4.1832 C.3     1  LIG1        0.0389
     44 H           7.0685   -3.2098    3.8450 H       1  LIG1        0.0395
     45 C           7.4600   -5.3202    4.2182 C.3     1  LIG1       -0.0262
     46 C           7.1339   -6.1225    5.4785 C.3     1  LIG1        0.0123
     47 N           6.4328   -5.1726    6.2804 N.am    1  LIG1       -0.3151
     48 C           6.1966   -3.9680    5.6621 C.2     1  LIG1        0.2162
     49 O           5.7397   -2.9878    6.2278 O.2     1  LIG1       -0.2755
     50 H           5.8089    4.9682    3.4758 H       1  LIG1        0.0232
     51 H           6.9443    4.2145    2.3394 H       1  LIG1        0.0232
     52 H           6.9033    3.6968    4.0132 H       1  LIG1        0.0232
     53 H           4.8501    2.5843    3.8524 H       1  LIG1        0.0296
     54 H           4.2619    3.7649    1.1160 H       1  LIG1        0.0232
     55 H           3.5086    4.0484    2.6499 H       1  LIG1        0.0232
     56 H           3.3504    2.4629    1.9101 H       1  LIG1        0.0232
     57 H           6.6890    1.3675    3.0071 H       1  LIG1        0.0290
     58 H           6.6538    2.1359    1.4408 H       1  LIG1        0.0290
     59 H           4.3850   -0.1983   -0.1698 H       1  LIG1        0.1495
     60 H           4.8471    0.1616   -2.5790 H       1  LIG1        0.0336
     61 H           5.1859    1.6975   -3.2882 H       1  LIG1        0.0336
     62 H           2.9910   -1.2594   -3.3220 H       1  LIG1        0.0620
     63 H           1.5893   -1.9399   -5.2282 H       1  LIG1        0.0618
     64 H           1.3048   -0.4507   -7.1645 H       1  LIG1        0.0624
     65 H           1.7327    1.7046   -8.2916 H       1  LIG1        0.0624
     66 H           2.6032    4.0108   -8.2268 H       1  LIG1        0.0618
     67 H           3.9488    4.7752   -6.2861 H       1  LIG1        0.0618
     68 H           4.5247    3.2301   -4.5259 H       1  LIG1        0.0624
     69 H           3.6505    3.7667   -2.5923 H       1  LIG1        0.1528
     70 H          -0.1933    4.5649   -0.8145 H       1  LIG1        0.0749
     71 H           0.1874    6.1452   -1.4390 H       1  LIG1        0.0749
     72 H           2.0392    4.3527    1.3384 H       1  LIG1        0.0621
     73 H           2.1192    5.2635    3.7004 H       1  LIG1        0.0618
     74 H           0.7172    7.1962    4.3032 H       1  LIG1        0.0618
     75 H          -0.6972    8.2535    2.5567 H       1  LIG1        0.0618
     76 H          -0.7206    7.3797    0.2638 H       1  LIG1        0.0621
     77 H           5.1680   -2.0091    1.7725 H       1  LIG1        0.1493
     78 H           3.9859   -2.5134    4.4394 H       1  LIG1        0.0543
     79 H           2.0373   -2.2270    2.9182 H       1  LIG1        0.0591
     80 H           2.4114   -5.2755    2.7553 H       1  LIG1        0.0647
     81 H          -0.0186   -5.2317    2.5923 H       1  LIG1        0.1075
     82 H           5.3179   -4.3594    2.3319 H       1  LIG1        0.0293
     83 H           4.5491   -4.9999    3.7835 H       1  LIG1        0.0293
     84 H           8.4970   -4.9628    4.3612 H       1  LIG1        0.0288
     85 H           7.4907   -5.9192    3.3033 H       1  LIG1        0.0288
     86 H           8.0235   -6.4654    6.0341 H       1  LIG1        0.0462
     87 H           6.4980   -6.9968    5.3194 H       1  LIG1        0.0462
     88 H           6.1122   -5.3268    7.2308 H       1  LIG1        0.1487
@<TRIPOS>BOND
     1     1     2    1
     2     2     3    1
     3     2     4    1
     4     5     7    1
     5     7     8   am
     6     8     9    2
     7    10    12    1
     8    12    13    1
     9    13    14   ar
    10    14    15   ar
    11    15    16   ar
    12    16    17   ar
    13    17    18   ar
    14    18    19   ar
    15    19    20   ar
    16    20    21   ar
    17    21    22   ar
    18    13    22   ar
    19    17    22   ar
    20    10    23    1
    21    23    24   am
    22    24    25    2
    23    24    26    1
    24    26    27    1
    25    27    28    1
    26    28    29   ar
    27    29    30   ar
    28    30    31   ar
    29    31    32   ar
    30    32    33   ar
    31    28    33   ar
    32     5    34    1
    33    34    35    2
    34    34    36   am
    35    36    37    1
    36    37    38    1
    37    38    39    2
    38    39    40    1
    39    40    41    2
    40    37    42    1
    41    43    45    1
    42    45    46    1
    43    46    47    1
    44    47    48   am
    45    43    48    1
    46    48    49    2
    47    43    44    1
    48    43    42    1
    49    10    11    1
    50    10     8    1
    51     5     6    1
    52     5     4    1
    53     1    50    1
    54     1    51    1
    55     1    52    1
    56     2    53    1
    57     3    54    1
    58     3    55    1
    59     3    56    1
    60     4    57    1
    61     4    58    1
    62     7    59    1
    63    12    60    1
    64    12    61    1
    65    14    62    1
    66    15    63    1
    67    16    64    1
    68    18    65    1
    69    19    66    1
    70    20    67    1
    71    21    68    1
    72    23    69    1
    73    27    70    1
    74    27    71    1
    75    29    72    1
    76    30    73    1
    77    31    74    1
    78    32    75    1
    79    33    76    1
    80    36    77    1
    81    37    78    1
    82    38    79    1
    83    39    80    1
    84    40    81    1
    85    42    82    1
    86    42    83    1
    87    45    84    1
    88    45    85    1
    89    46    86    1
    90    46    87    1
    91    47    88    1
@<TRIPOS>MOLECULE
*****
 97 98 0 0 0
SMALL
GASTEIGER

@<TRIPOS>ATOM
      1 C          12.1778   -0.6685   -3.7469 C.3     1  LIG1       -0.0306
      2 C          11.0905   -0.0218   -4.5774 C.3     1  LIG1        0.0900
      3 O           9.8088   -0.5845   -4.2730 O.3     1  LIG1       -0.4618
      4 C           9.3824   -1.6818   -4.9815 C.2     1  LIG1        0.3317
      5 O           9.9627   -2.3349   -5.8066 O.2     1  LIG1       -0.2456
      6 C           7.9605   -1.7980   -4.4939 C.2     1  LIG1        0.0203
      7 C           6.8575   -2.3371   -5.0429 C.2     1  LIG1       -0.0572
      8 C           5.5317   -2.4653   -4.2565 C.3     1  LIG1        0.0427
      9 H           4.9678   -3.2983   -4.6912 H       1  LIG1        0.0543
     10 C           4.6589   -1.1418   -4.3683 C.3     1  LIG1       -0.0197
     11 C           3.2177   -1.1339   -3.7703 C.3     1  LIG1        0.0389
     12 H           2.6262   -1.9554   -4.1936 H       1  LIG1        0.0395
     13 C           2.4230    0.1922   -3.9787 C.3     1  LIG1       -0.0262
     14 C           1.4890    0.2881   -2.7761 C.3     1  LIG1        0.0123
     15 N           2.1974   -0.4152   -1.7591 N.am    1  LIG1       -0.3151
     16 C           3.1702   -1.2460   -2.2539 C.2     1  LIG1        0.2162
     17 O           3.8386   -1.9839   -1.5525 O.2     1  LIG1       -0.2755
     18 N           5.8551   -2.8574   -2.8624 N.am    1  LIG1       -0.3075
     19 C           6.5365   -4.0200   -2.5244 C.2     1  LIG1        0.2338
     20 O           6.9023   -4.8305   -3.3772 O.2     1  LIG1       -0.2738
     21 C           6.7133   -4.3487   -0.9948 C.3     1  LIG1        0.0994
     22 H           7.7131   -4.8044   -0.9555 H       1  LIG1        0.0594
     23 C           5.7413   -5.4530   -0.5155 C.3     1  LIG1       -0.0257
     24 C           4.2791   -5.0022   -0.3884 C.3     1  LIG1       -0.0486
     25 C           3.2682   -6.0750    0.0750 C.3     1  LIG1       -0.0467
     26 C           3.1913   -7.2765   -0.8682 C.3     1  LIG1       -0.0627
     27 C           3.5204   -6.5308    1.5134 C.3     1  LIG1       -0.0627
     28 N           6.7421   -3.2222   -0.0501 N.am    1  LIG1       -0.3025
     29 C           7.9014   -2.8522    0.6116 C.2     1  LIG1        0.2342
     30 O           8.9682   -3.4474    0.4683 O.2     1  LIG1       -0.2738
     31 C           7.7299   -1.7307    1.6686 C.3     1  LIG1        0.1017
     32 H           6.8803   -1.1013    1.3799 H       1  LIG1        0.0597
     33 N           7.4134   -2.3873    2.9536 N.am    1  LIG1       -0.3022
     34 C           6.6344   -1.7704    3.9141 C.2     1  LIG1        0.2342
     35 O           6.1543   -0.6518    3.7265 O.2     1  LIG1       -0.2738
     36 C           6.5152   -2.4953    5.2871 C.3     1  LIG1        0.1021
     37 H           6.6632   -3.5708    5.1420 H       1  LIG1        0.0597
     38 N           7.6105   -1.9886    6.1317 N.am    1  LIG1       -0.2973
     39 C           8.1800   -2.7230    7.1569 C.2     1  LIG1        0.2800
     40 O           7.8083   -3.8640    7.4206 O.2     1  LIG1       -0.2668
     41 C           9.2054   -2.0310    7.9172 C.ar    1  LIG1        0.1890
     42 C           9.6385   -2.1925    9.2229 C.ar    1  LIG1       -0.0113
     43 C          10.6807   -1.2558    9.4313 C.ar    1  LIG1       -0.0231
     44 C          10.8386   -0.5940    8.2371 C.ar    1  LIG1        0.0928
     45 O           9.9419   -1.0409    7.3179 O.2     1  LIG1       -0.4583
     46 C           5.1077   -2.2325    5.9115 C.3     1  LIG1       -0.0197
     47 C           3.9802   -2.8094    5.0378 C.3     1  LIG1       -0.0605
     48 C           4.9449   -2.7946    7.3294 C.3     1  LIG1       -0.0605
     49 C           9.0175   -0.8567    1.7439 C.3     1  LIG1       -0.0197
     50 C           9.2548   -0.1093    0.4213 C.3     1  LIG1       -0.0605
     51 C           8.9823    0.1703    2.8813 C.3     1  LIG1       -0.0605
     52 H          13.1340   -0.1602   -3.9017 H       1  LIG1        0.0262
     53 H          12.2893   -1.7237   -4.0107 H       1  LIG1        0.0262
     54 H          11.9274   -0.6284   -2.6811 H       1  LIG1        0.0262
     55 H          11.2978   -0.0648   -5.6494 H       1  LIG1        0.0695
     56 H          11.0089    1.0358   -4.2983 H       1  LIG1        0.0695
     57 H           7.8529   -1.3558   -3.5155 H       1  LIG1        0.0686
     58 H           6.8949   -2.7902   -6.0358 H       1  LIG1        0.0593
     59 H           4.5564   -0.8988   -5.4378 H       1  LIG1        0.0293
     60 H           5.2181   -0.3092   -3.9219 H       1  LIG1        0.0293
     61 H           1.8507    0.2166   -4.9128 H       1  LIG1        0.0288
     62 H           3.0951    1.0591   -3.9796 H       1  LIG1        0.0288
     63 H           0.5298   -0.2150   -2.9370 H       1  LIG1        0.0462
     64 H           1.3036    1.3161   -2.4480 H       1  LIG1        0.0462
     65 H           1.9709   -0.4142   -0.7712 H       1  LIG1        0.1487
     66 H           5.1367   -2.6354   -2.1774 H       1  LIG1        0.1493
     67 H           6.0856   -5.8269    0.4581 H       1  LIG1        0.0288
     68 H           5.8103   -6.2918   -1.2164 H       1  LIG1        0.0288
     69 H           3.9444   -4.6149   -1.3561 H       1  LIG1        0.0268
     70 H           4.2210   -4.1684    0.3220 H       1  LIG1        0.0268
     71 H           2.2792   -5.5959    0.0641 H       1  LIG1        0.0295
     72 H           4.1597   -7.7716   -0.9844 H       1  LIG1        0.0232
     73 H           2.8445   -6.9680   -1.8601 H       1  LIG1        0.0232
     74 H           2.4860   -8.0249   -0.4896 H       1  LIG1        0.0232
     75 H           4.3714   -7.2154    1.5778 H       1  LIG1        0.0232
     76 H           2.6406   -7.0543    1.9064 H       1  LIG1        0.0232
     77 H           3.7121   -5.6779    2.1731 H       1  LIG1        0.0232
     78 H           5.8759   -2.7415    0.1625 H       1  LIG1        0.1495
     79 H           7.8314   -3.2940    3.1399 H       1  LIG1        0.1495
     80 H           7.8940   -1.0173    6.0426 H       1  LIG1        0.1499
     81 H           9.2314   -2.8913    9.9420 H       1  LIG1        0.0657
     82 H          11.2470   -1.0842   10.3373 H       1  LIG1        0.0649
     83 H          11.5041    0.1896    7.9013 H       1  LIG1        0.1029
     84 H           4.9454   -1.1486    5.9784 H       1  LIG1        0.0318
     85 H           4.0773   -3.8940    4.9166 H       1  LIG1        0.0233
     86 H           3.9660   -2.3543    4.0431 H       1  LIG1        0.0233
     87 H           3.0018   -2.6139    5.4933 H       1  LIG1        0.0233
     88 H           5.0725   -3.8822    7.3470 H       1  LIG1        0.0233
     89 H           3.9466   -2.5703    7.7224 H       1  LIG1        0.0233
     90 H           5.6570   -2.3450    8.0264 H       1  LIG1        0.0233
     91 H           9.8863   -1.5048    1.9195 H       1  LIG1        0.0318
     92 H           8.4651    0.6263    0.2328 H       1  LIG1        0.0233
     93 H           9.2923   -0.7916   -0.4333 H       1  LIG1        0.0233
     94 H          10.2108    0.4263    0.4486 H       1  LIG1        0.0233
     95 H           8.0904    0.8023    2.8187 H       1  LIG1        0.0233
     96 H           9.8562    0.8295    2.8480 H       1  LIG1        0.0233
     97 H           8.9953   -0.3234    3.8575 H       1  LIG1        0.0233
@<TRIPOS>BOND
     1     1     2    1
     2     2     3    1
     3     3     4    1
     4     4     5    2
     5     4     6    1
     6     6     7    2
     7     8    10    1
     8    11    13    1
     9    13    14    1
    10    14    15    1
    11    15    16   am
    12    11    16    1
    13    16    17    2
    14     8    18    1
    15    18    19   am
    16    19    20    2
    17    21    23    1
    18    23    24    1
    19    24    25    1
    20    25    26    1
    21    25    27    1
    22    21    28    1
    23    28    29   am
    24    29    30    2
    25    29    31    1
    26    31    32    1
    27    31    33    1
    28    33    34   am
    29    34    35    2
    30    34    36    1
    31    36    37    1
    32    36    38    1
    33    38    39   am
    34    39    40    2
    35    39    41    1
    36    41    42   ar
    37    42    43   ar
    38    43    44   ar
    39    44    45   ar
    40    41    45   ar
    41    36    46    1
    42    46    47    1
    43    46    48    1
    44    31    49    1
    45    49    50    1
    46    49    51    1
    47    21    22    1
    48    21    19    1
    49     8     9    1
    50     8     7    1
    51    11    12    1
    52    11    10    1
    53     1    52    1
    54     1    53    1
    55     1    54    1
    56     2    55    1
    57     2    56    1
    58     6    57    1
    59     7    58    1
    60    10    59    1
    61    10    60    1
    62    13    61    1
    63    13    62    1
    64    14    63    1
    65    14    64    1
    66    15    65    1
    67    18    66    1
    68    23    67    1
    69    23    68    1
    70    24    69    1
    71    24    70    1
    72    25    71    1
    73    26    72    1
    74    26    73    1
    75    26    74    1
    76    27    75    1
    77    27    76    1
    78    27    77    1
    79    28    78    1
    80    33    79    1
    81    38    80    1
    82    42    81    1
    83    43    82    1
    84    44    83    1
    85    46    84    1
    86    47    85    1
    87    47    86    1
    88    47    87    1
    89    48    88    1
    90    48    89    1
    91    48    90    1
    92    49    91    1
    93    50    92    1
    94    50    93    1
    95    50    94    1
    96    51    95    1
    97    51    96    1
    98    51    97    1
