
##########                                Name:            6lu7.pdb
##########                DOCK_Rotatable_Bonds:                  24
##########                    Molecular_Weight:             696.801
##########                       Formal_Charge:        -0.000199974
##########                            HA_RMSDs:              1.6594
##########                            HA_RMSDh:              1.4291
##########                            HA_RMSDm:              1.2918
##########                          Grid_Score:          -98.285011
##########                     Grid_vdw_energy:          -91.672707
##########                      Grid_es_energy:           -6.612302
##########           Internal_energy_repulsive:           33.002808

@<TRIPOS>MOLECULE
6lu7.pdb
 98 100 1 0 0
PROTEIN
AMBER ff14SB


@<TRIPOS>ATOM
      1 C4         -9.7607    3.6247   72.5145 C.ar    1  02J        -0.3136
      2 C5         -9.7218    2.6353   73.5222 C.ar    1  02J         0.2570
      3 C6         -8.6336    1.5876   73.7155 C.3     1  02J        -0.1414
      4 O1        -10.7867    2.7860   74.2542 O.2     1  02J        -0.1854
      5 N2        -11.5302    3.7807   73.8280 N.ar    1  02J        -0.2700
      6 C3        -10.9691    4.3515   72.7583 C.ar    1  02J         0.2658
      7 C41       -11.5124    5.5450   71.9575 C.2     1  02J         0.5916
      8 O42       -10.9227    5.9352   71.0103 O.2     1  02J        -0.6001
      9 H4         -9.0367    3.7954   71.7314 H       1  02J         0.1960
     10 H61        -8.8778    0.9637   74.5752 H       1  02J         0.0670
     11 H62        -8.5659    0.9656   72.8231 H       1  02J         0.0670
     12 H63        -7.6781    2.0834   73.8863 H       1  02J         0.0670
     13 N         -12.7590    6.1962   72.3659 N.am    2  ALA        -0.4157
     14 CA        -13.2620    7.3241   71.5995 C.3     2  ALA         0.0337
     15 C         -12.1452    8.4098   71.5045 C.2     2  ALA         0.5973
     16 O         -11.4309    8.5996   72.4120 O.2     2  ALA        -0.5679
     17 CB        -14.4771    7.9070   72.2751 C.3     2  ALA        -0.1825
     18 H         -13.2653    5.8641   73.1741 H       2  ALA         0.2719
     19 HA        -13.5296    6.9906   70.5968 H       2  ALA         0.0823
     20 HB1       -14.8469    8.7514   71.6935 H       2  ALA         0.0603
     21 HB2       -14.2089    8.2450   73.2761 H       2  ALA         0.0603
     22 HB3       -15.2542    7.1458   72.3448 H       2  ALA         0.0603
     23 N         -11.9936    9.1756   70.2916 N.am    3  VAL        -0.4157
     24 CA        -10.9461   10.1968   70.1968 C.3     3  VAL        -0.0875
     25 C         -11.5230   11.4546   69.6022 C.2     3  VAL         0.5973
     26 O         -12.1147   11.4079   68.5743 O.2     3  VAL        -0.5679
     27 CB         -9.7961    9.6734   69.2874 C.3     3  VAL         0.2985
     28 CG1       -10.3465    9.1255   67.9338 C.3     3  VAL        -0.3192
     29 CG2        -8.7192   10.7813   69.0541 C.3     3  VAL        -0.3192
     30 H         -12.6087    9.0084   69.5082 H       3  VAL         0.2719
     31 HA        -10.5550   10.4106   71.1915 H       3  VAL         0.0969
     32 HB         -9.3130    8.8463   69.8075 H       3  VAL        -0.0297
     33 HG11       -9.5181    8.7679   67.3222 H       3  VAL         0.0791
     34 HG12      -11.0357    8.3035   68.1282 H       3  VAL         0.0791
     35 HG13      -10.8706    9.9219   67.4057 H       3  VAL         0.0791
     36 HG21       -7.9270   10.3900   68.4158 H       3  VAL         0.0791
     37 HG22       -8.2968   11.0846   70.0120 H       3  VAL         0.0791
     38 HG23       -9.1822   11.6423   68.5721 H       3  VAL         0.0791
     39 N         -11.3423   12.7690   70.3188 N.am    4  LEU        -0.4157
     40 CA        -11.8931   13.9939   69.7583 C.3     4  LEU        -0.0518
     41 C         -11.0465   14.3949   68.5164 C.2     4  LEU         0.5973
     42 O          -9.9328   13.9950   68.4062 O.2     4  LEU        -0.5679
     43 CB        -11.8199   15.0949   70.8041 C.3     4  LEU        -0.1102
     44 CG        -12.7464   14.8503   72.0375 C.3     4  LEU         0.3531
     45 CD1       -12.2425   15.6019   73.3112 C.3     4  LEU        -0.4121
     46 CD2       -14.1943   15.2308   71.7177 C.3     4  LEU        -0.4121
     47 H         -10.8362   12.7995   71.1924 H       4  LEU         0.2719
     48 HA        -12.9299   13.8323   69.4630 H       4  LEU         0.0922
     49 HB2       -10.7908   15.1678   71.1557 H       4  LEU         0.0457
     50 HB3       -12.0988   16.0399   70.3381 H       4  LEU         0.0457
     51 HG        -12.7275   13.7826   72.2565 H       4  LEU        -0.0361
     52 HD21      -14.5229   14.6950   70.8271 H       4  LEU         0.1000
     53 HD22      -14.2566   16.3042   71.5393 H       4  LEU         0.1000
     54 HD23      -14.8344   14.9644   72.5588 H       4  LEU         0.1000
     55 HD11      -13.0459   15.6512   74.0462 H       4  LEU         0.1000
     56 HD12      -11.3936   15.0669   73.7365 H       4  LEU         0.1000
     57 HD13      -11.9363   16.6122   73.0395 H       4  LEU         0.1000
     58 C19       -10.8097   15.6434   66.2850 C.3     5  PJE         0.1066
     59 C20       -10.6730   17.1481   66.2282 C.3     5  PJE        -0.0985
     60 C21       -10.6532   17.8012   67.6274 C.3     5  PJE        -0.1275
     61 C22       -10.0860   19.2479   67.6353 C.2     5  PJE         0.6580
     62 C25       -11.4820   15.1439   65.0079 C.3     5  PJE        -0.0795
     63 C26       -11.5661   13.5445   64.9690 C.3     5  PJE        -0.0596
     64 C27       -10.0516   12.9050   64.9279 C.2     5  PJE        -0.2563
     65 C28        -9.9786   12.0223   63.9030 C.2     5  PJE         0.0139
     66 N6        -11.1990   12.2428   63.0424 N.3     5  PJE        -0.7591
     67 C29       -12.2114   13.1355   63.9280 C.3     5  PJE         0.3732
     68 O8        -12.7220   14.2196   63.1500 O.3     5  PJE        -0.5919
     69 N5        -11.6277   15.2709   67.4594 N.am    5  PJE        -0.5750
     70 O7        -10.5133   20.0675   66.8886 O.2     5  PJE        -0.4791
     71 H19        -9.8212   15.1928   66.3742 H       5  PJE         0.0946
     72 H202      -11.5152   17.5530   65.6671 H       5  PJE         0.0651
     73 H203       -9.7487   17.3995   65.7081 H       5  PJE         0.0651
     74 H212      -11.6744   17.8302   68.0076 H       5  PJE         0.0886
     75 H213      -10.0491   17.1846   68.2930 H       5  PJE         0.0886
     76 H252      -10.9069   15.4882   64.1482 H       5  PJE         0.0556
     77 H253      -12.4897   15.5554   64.9508 H       5  PJE         0.0556
     78 H26       -12.0770   13.1930   65.8654 H       5  PJE         0.0726
     79 H27        -9.2476   13.1487   65.6065 H       5  PJE         0.1609
     80 H28        -9.1955   11.2980   63.7337 H       5  PJE         0.1609
     81 H29       -13.0435   12.5101   64.2513 H       5  PJE         0.0736
     82 H5        -12.5757   15.6085   67.5450 H       5  PJE         0.3104
     83 H6        -11.6260   11.3588   62.8056 H       5  PJE         0.4007
     84 H8        -12.8843   14.9747   63.7202 H       5  PJE         0.4139
     85 C          -7.7906   19.8692   67.9021 C.2     6  010         0.6726
     86 O          -9.0387   19.5807   68.5386 O.3     6  010        -0.5043
     87 C1         -6.3352   19.1457   69.8679 C.ar    6  010        -0.0676
     88 C2         -5.3610   18.3298   70.4410 C.ar    6  010        -0.1446
     89 C3         -4.7549   17.3265   69.6800 C.ar    6  010        -0.0921
     90 C4         -5.1261   17.1476   68.3543 C.ar    6  010        -0.1446
     91 C5         -6.1008   17.9594   67.7781 C.ar    6  010        -0.0676
     92 C6         -6.7063   18.9605   68.5400 C.ar    6  010        -0.1367
     93 OXT        -7.6089   20.6921   67.0075 O.2     6  010        -0.4841
     94 H1         -6.8022   19.9223   70.4553 H       6  010         0.1564
     95 H2         -5.0748   18.4730   71.4726 H       6  010         0.1424
     96 H3         -4.0002   16.6925   70.1217 H       6  010         0.1389
     97 H4         -4.6560   16.3737   67.7656 H       6  010         0.1424
     98 H5         -6.3867   17.8149   66.7466 H       6  010         0.1564
@<TRIPOS>BOND
     1     1     2   ar
     2     1     6   ar
     3     2     3    1
     4     2     4   ar
     5     4     5   ar
     6     5     6   ar
     7     6     7    1
     8     7     8    2
     9     7    13   am
    10    41    69   am
    11    58    59    1
    12    58    62    1
    13    58    69    1
    14    59    60    1
    15    60    61    1
    16    61    70    2
    17    61    86    1
    18    62    63    1
    19    63    64    1
    20    63    67    1
    21    64    65    2
    22    65    66    1
    23    66    67    1
    24    67    68    1
    25    85    86    1
    26    85    92    1
    27    87    88   ar
    28    87    92   ar
    29    88    89   ar
    30    89    90   ar
    31    90    91   ar
    32    91    92   ar
    33    13    14    1
    34    14    17    1
    35    14    15    1
    36    15    16    2
    37    23    24    1
    38    24    27    1
    39    24    25    1
    40    25    26    2
    41    27    28    1
    42    27    29    1
    43    15    23   am
    44    39    40    1
    45    40    41    1
    46    40    43    1
    47    41    42    2
    48    43    44    1
    49    44    45    1
    50    44    46    1
    51    25    39   am
    52    93    85    2
    53     9     1    1
    54    18    13    1
    55    19    14    1
    56    30    23    1
    57    31    24    1
    58    32    27    1
    59    47    39    1
    60    48    40    1
    61    49    43    1
    62    50    43    1
    63    51    44    1
    64    71    58    1
    65    72    59    1
    66    73    59    1
    67    74    60    1
    68    75    60    1
    69    76    62    1
    70    77    62    1
    71    78    63    1
    72    79    64    1
    73    80    65    1
    74    81    67    1
    75    82    69    1
    76    94    87    1
    77    95    88    1
    78    96    89    1
    79    97    90    1
    80    98    91    1
    81    52    46    1
    82    53    46    1
    83    54    46    1
    84    33    28    1
    85    34    28    1
    86    35    28    1
    87    36    29    1
    88    37    29    1
    89    38    29    1
    90    83    66    1
    91    20    17    1
    92    21    17    1
    93    22    17    1
    94    84    68    1
    95    55    45    1
    96    56    45    1
    97    57    45    1
    98    10     3    1
    99    11     3    1
   100    12     3    1
@<TRIPOS>SUBSTRUCTURE
     1 02J         1 TEMP              0 ****  ****    0 ROOT

