
##########                                Name:            6lu7.pdb
##########                DOCK_Rotatable_Bonds:                  24
##########                    Molecular_Weight:             696.801
##########                       Formal_Charge:        -0.000199974
##########          Footprint_Similarity_Score:        65877.023438
##########                      FPS_vdw_energy:           63.354652
##########                       FPS_es_energy:            1.015138
##########                   FPS_vdw+es_energy:           64.369789
##########                       FPS_num_hbond:                   5
##########                         FPS_vdw_fps:        65866.925706
##########                          FPS_es_fps:           10.099847
##########                          FPS_hb_fps:            1.414214
##########                   FPS_vdw_fp_numres:                 390
##########                    FPS_es_fp_numres:                 390
##########                    FPS_hb_fp_numres:                 390

@<TRIPOS>MOLECULE
6lu7.pdb
 98 100 1 0 0
PROTEIN
AMBER ff14SB


@<TRIPOS>ATOM
      1 C4        -10.5433    3.1322   72.5924 C.ar    1  02J        -0.3136
      2 C5        -10.2256    2.5140   73.8224 C.ar    1  02J         0.2570
      3 C6         -9.6885    1.1012   74.0091 C.3     1  02J        -0.1414
      4 O1        -10.4757    3.3753   74.7647 O.2     1  02J        -0.1854
      5 N2        -10.9307    4.5067   74.2781 N.ar    1  02J        -0.2700
      6 C3        -11.0031    4.4405   72.9457 C.ar    1  02J         0.2658
      7 C41       -11.4812    5.5458   71.9913 C.2     1  02J         0.5916
      8 O42       -10.9145    5.7267   70.9699 O.2     1  02J        -0.6001
      9 H4        -10.4579    2.7098   71.6021 H       1  02J         0.1960
     10 H61        -9.5396    0.9060   75.0711 H       1  02J         0.0670
     11 H62       -10.4035    0.3847   73.6050 H       1  02J         0.0670
     12 H63        -8.7382    1.0015   73.4847 H       1  02J         0.0670
     13 N         -12.6375    6.3717   72.3458 N.am    2  ALA        -0.4157
     14 CA        -13.0784    7.4149   71.4348 C.3     2  ALA         0.0337
     15 C         -11.9432    8.4760   71.2930 C.2     2  ALA         0.5973
     16 O         -11.3352    8.8160   72.2336 O.2     2  ALA        -0.5679
     17 CB        -14.3236    8.0754   71.9696 C.3     2  ALA        -0.1825
     18 H         -13.1249    6.2176   73.2168 H       2  ALA         0.2719
     19 HA        -13.2903    6.9781   70.4588 H       2  ALA         0.0823
     20 HB1       -14.6464    8.8555   71.2802 H       2  ALA         0.0603
     21 HB2       -14.1109    8.5165   72.9434 H       2  ALA         0.0603
     22 HB3       -15.1138    7.3317   72.0724 H       2  ALA         0.0603
     23 N         -11.6428    9.0331   69.9969 N.am    3  VAL        -0.4157
     24 CA        -10.5754   10.0283   69.8574 C.3     3  VAL        -0.0875
     25 C         -11.1820   11.3845   69.6101 C.2     3  VAL         0.5973
     26 O         -11.8829   11.5583   68.6681 O.2     3  VAL        -0.5679
     27 CB         -9.6632    9.6415   68.6566 C.3     3  VAL         0.2985
     28 CG1        -8.6706   10.7926   68.3029 C.3     3  VAL        -0.3192
     29 CG2        -8.9038    8.3054   68.9387 C.3     3  VAL        -0.3192
     30 H         -12.1675    8.7379   69.1860 H       3  VAL         0.2719
     31 HA         -9.9819   10.0561   70.7712 H       3  VAL         0.0969
     32 HB        -10.3058    9.4807   67.7909 H       3  VAL        -0.0297
     33 HG11       -8.0483   10.4904   67.4605 H       3  VAL         0.0791
     34 HG12       -9.2328   11.6877   68.0364 H       3  VAL         0.0791
     35 HG13       -8.0377   11.0041   69.1646 H       3  VAL         0.0791
     36 HG21       -8.2737    8.0576   68.0845 H       3  VAL         0.0791
     37 HG22       -9.6255    7.5049   69.1016 H       3  VAL         0.0791
     38 HG23       -8.2827    8.4210   69.8269 H       3  VAL         0.0791
     39 N         -10.8918   12.5161   70.5636 N.am    4  LEU        -0.4157
     40 CA        -11.4653   13.8342   70.3366 C.3     4  LEU        -0.0518
     41 C         -10.8610   14.4186   69.0277 C.2     4  LEU         0.5973
     42 O          -9.7219   14.2121   68.7590 O.2     4  LEU        -0.5679
     43 CB        -11.1147   14.7364   71.5089 C.3     4  LEU        -0.1102
     44 CG        -12.3434   15.1210   72.3931 C.3     4  LEU         0.3531
     45 CD1       -13.5095   14.0893   72.2623 C.3     4  LEU        -0.4121
     46 CD2       -11.9308   15.2937   73.8571 C.3     4  LEU        -0.4121
     47 H         -10.2962   12.3584   71.3640 H       4  LEU         0.2719
     48 HA        -12.5483   13.7553   70.2413 H       4  LEU         0.0922
     49 HB2       -10.3879   14.2197   72.1356 H       4  LEU         0.0457
     50 HB3       -10.6598   15.6494   71.1247 H       4  LEU         0.0457
     51 HG        -12.7144   16.0833   72.0401 H       4  LEU        -0.0361
     52 HD21      -11.1176   16.0166   73.9230 H       4  LEU         0.1000
     53 HD22      -11.5979   14.3355   74.2560 H       4  LEU         0.1000
     54 HD23      -12.7828   15.6517   74.4351 H       4  LEU         0.1000
     55 HD11      -14.2064   14.2211   73.0900 H       4  LEU         0.1000
     56 HD12      -14.0316   14.2491   71.3190 H       4  LEU         0.1000
     57 HD13      -13.1040   13.0778   72.2864 H       4  LEU         0.1000
     58 C19       -11.1165   15.7763   66.8631 C.3     5  PJE         0.1066
     59 C20       -11.3551   17.2685   66.8126 C.3     5  PJE        -0.0985
     60 C21       -10.0444   18.0847   66.7957 C.3     5  PJE        -0.1275
     61 C22        -8.9905   17.5987   67.8290 C.2     5  PJE         0.6580
     62 C25       -11.7644   15.1149   65.6485 C.3     5  PJE        -0.0795
     63 C26       -11.5552   13.5266   65.6566 C.3     5  PJE        -0.0596
     64 C27        -9.9867   13.1667   65.3181 C.2     5  PJE        -0.2563
     65 C28        -9.9547   12.2557   64.3161 C.2     5  PJE         0.0139
     66 N6        -11.3405   12.2065   63.7195 N.3     5  PJE        -0.7591
     67 C29       -12.3060   12.9517   64.7773 C.3     5  PJE         0.3732
     68 O8        -13.1531   13.8822   64.1007 O.3     5  PJE        -0.5919
     69 N5        -11.7055   15.2289   68.1043 N.am    5  PJE        -0.5750
     70 O7         -9.3119   17.3446   68.9444 O.2     5  PJE        -0.4791
     71 H19       -10.0443   15.5802   66.8536 H       5  PJE         0.0946
     72 H202      -11.9341   17.5581   67.6895 H       5  PJE         0.0651
     73 H203      -11.9295   17.5042   65.9167 H       5  PJE         0.0651
     74 H212       -9.6077   18.0130   65.7995 H       5  PJE         0.0886
     75 H213      -10.2797   19.1292   67.0004 H       5  PJE         0.0886
     76 H252      -11.3177   15.5252   64.7428 H       5  PJE         0.0556
     77 H253      -12.8322   15.3339   65.6503 H       5  PJE         0.0556
     78 H26       -11.8041   13.1398   66.6448 H       5  PJE         0.0726
     79 H27        -9.1241   13.5874   65.8133 H       5  PJE         0.1609
     80 H28        -9.0997   11.6747   64.0032 H       5  PJE         0.1609
     81 H29       -12.9263   12.2066   65.2753 H       5  PJE         0.0736
     82 H5        -12.6755   15.4033   68.3254 H       5  PJE         0.3104
     83 H6        -11.6336   11.2486   63.5912 H       5  PJE         0.4007
     84 H8        -13.6575   13.4235   63.4248 H       5  PJE         0.4139
     85 C          -6.7595   17.0169   68.4696 C.2     6  010         0.6726
     86 O          -7.6309   17.4721   67.4305 O.3     6  010        -0.5043
     87 C1         -4.6148   17.9356   69.5004 C.ar    6  010        -0.0676
     88 C2         -3.7721   18.9901   69.8483 C.ar    6  010        -0.1446
     89 C3         -4.1409   20.3051   69.5521 C.ar    6  010        -0.0921
     90 C4         -5.3473   20.5553   68.9124 C.ar    6  010        -0.1446
     91 C5         -6.1917   19.5043   68.5610 C.ar    6  010        -0.0676
     92 C6         -5.8213   18.1910   68.8565 C.ar    6  010        -0.1367
     93 OXT        -6.7547   15.8936   68.9681 O.2     6  010        -0.4841
     94 H1         -4.3309   16.9195   69.7310 H       6  010         0.1564
     95 H2         -2.8347   18.7909   70.3465 H       6  010         0.1424
     96 H3         -3.4896   21.1240   69.8200 H       6  010         0.1389
     97 H4         -5.6333   21.5718   68.6856 H       6  010         0.1424
     98 H5         -7.1285   19.7046   68.0622 H       6  010         0.1564
@<TRIPOS>BOND
     1     1     2   ar
     2     1     6   ar
     3     2     3    1
     4     2     4   ar
     5     4     5   ar
     6     5     6   ar
     7     6     7    1
     8     7     8    2
     9     7    13   am
    10    41    69   am
    11    58    59    1
    12    58    62    1
    13    58    69    1
    14    59    60    1
    15    60    61    1
    16    61    70    2
    17    61    86    1
    18    62    63    1
    19    63    64    1
    20    63    67    1
    21    64    65    2
    22    65    66    1
    23    66    67    1
    24    67    68    1
    25    85    86    1
    26    85    92    1
    27    87    88   ar
    28    87    92   ar
    29    88    89   ar
    30    89    90   ar
    31    90    91   ar
    32    91    92   ar
    33    13    14    1
    34    14    17    1
    35    14    15    1
    36    15    16    2
    37    23    24    1
    38    24    27    1
    39    24    25    1
    40    25    26    2
    41    27    28    1
    42    27    29    1
    43    15    23   am
    44    39    40    1
    45    40    41    1
    46    40    43    1
    47    41    42    2
    48    43    44    1
    49    44    45    1
    50    44    46    1
    51    25    39   am
    52    93    85    2
    53     9     1    1
    54    18    13    1
    55    19    14    1
    56    30    23    1
    57    31    24    1
    58    32    27    1
    59    47    39    1
    60    48    40    1
    61    49    43    1
    62    50    43    1
    63    51    44    1
    64    71    58    1
    65    72    59    1
    66    73    59    1
    67    74    60    1
    68    75    60    1
    69    76    62    1
    70    77    62    1
    71    78    63    1
    72    79    64    1
    73    80    65    1
    74    81    67    1
    75    82    69    1
    76    94    87    1
    77    95    88    1
    78    96    89    1
    79    97    90    1
    80    98    91    1
    81    52    46    1
    82    53    46    1
    83    54    46    1
    84    33    28    1
    85    34    28    1
    86    35    28    1
    87    36    29    1
    88    37    29    1
    89    38    29    1
    90    83    66    1
    91    20    17    1
    92    21    17    1
    93    22    17    1
    94    84    68    1
    95    55    45    1
    96    56    45    1
    97    57    45    1
    98    10     3    1
    99    11     3    1
   100    12     3    1
@<TRIPOS>SUBSTRUCTURE
     1 02J         1 TEMP              0 ****  ****    0 ROOT

